
     RDKit          2D

 56 61  0  0  0  0  0  0  0  0999 V2000
    9.1311    6.7031    0.0000 N   0  0  0  0  0  0  0  0  0  0  0  0
    7.6371    6.5686    0.0000 C   0  0  0  0  0  0  0  0  0  0  0  0
    6.7737    7.7952    0.0000 O   0  0  0  0  0  0  0  0  0  0  0  0
    7.0066    5.2076    0.0000 C   0  0  0  0  0  0  0  0  0  0  0  0
    7.8700    3.9810    0.0000 C   0  0  0  0  0  0  0  0  0  0  0  0
    9.3640    4.1154    0.0000 C   0  0  0  0  0  0  0  0  0  0  0  0
   10.2274    2.8889    0.0000 C   0  0  0  0  0  0  0  0  0  0  0  0
   11.7214    3.0233    0.0000 C   0  0  0  0  0  0  0  0  0  0  0  0
   12.3519    4.3844    0.0000 C   0  0  0  0  0  0  0  0  0  0  0  0
   11.4885    5.6109    0.0000 C   0  0  0  0  0  0  0  0  0  0  0  0
    9.9945    5.4765    0.0000 C   0  0  0  0  0  0  0  0  0  0  0  0
    5.5126    5.0731    0.0000 N   0  0  0  0  0  0  0  0  0  0  0  0
    4.6492    6.2997    0.0000 C   0  0  0  0  0  0  0  0  0  0  0  0
    5.2797    7.6607    0.0000 O   0  0  0  0  0  0  0  0  0  0  0  0
    3.1552    6.1652    0.0000 C   0  0  0  0  0  0  0  0  0  0  0  0
    3.0655    4.6679    0.0000 C   0  0  0  0  0  0  0  0  0  0  0  0
    2.5385    3.2636    0.0000 O   0  0  0  0  0  0  0  0  0  0  0  0
    1.6209    2.0770    0.0000 C   0  0  0  0  0  0  0  0  0  0  0  0
    0.3943    1.2135    0.0000 C   0  0  0  0  0  0  0  0  0  0  0  0
    1.2760    0.0000    0.0000 C   0  0  0  0  0  0  0  0  0  0  0  0
    0.3943   -1.2135    0.0000 N   0  0  0  0  0  0  0  0  0  0  0  0
   -1.0323   -0.7500    0.0000 N   0  0  0  0  0  0  0  0  0  0  0  0
   -1.0323    0.7500    0.0000 N   0  0  0  0  0  0  0  0  0  0  0  0
   -2.5321    0.7276    0.0000 C   0  0  0  0  0  0  0  0  0  0  0  0
   -3.9719    1.1482    0.0000 C   0  0  0  0  0  0  0  0  0  0  0  0
   -5.2238    1.9745    0.0000 C   0  0  0  0  0  0  0  0  0  0  0  0
   -6.1765    3.1332    0.0000 C   0  0  0  0  0  0  0  0  0  0  0  0
   -6.7453    4.5211    0.0000 C   0  0  0  0  0  0  0  0  0  0  0  0
   -8.2025    4.1655    0.0000 O   0  0  0  0  0  0  0  0  0  0  0  0
   -6.8798    6.0151    0.0000 N   0  0  0  0  0  0  0  0  0  0  0  0
   -6.5679    7.4823    0.0000 C   0  0  0  0  0  0  0  0  0  0  0  0
   -5.8374    8.7924    0.0000 C   0  0  0  0  0  0  0  0  0  0  0  0
   -7.0240    9.7100    0.0000 O   0  0  0  0  0  0  0  0  0  0  0  0
   -4.7532    9.8290    0.0000 N   0  0  0  0  0  0  0  0  0  0  0  0
   -5.8059   10.8976    0.0000 C   0  0  0  0  0  0  0  0  0  0  0  0
   -5.1150   12.2290    0.0000 C   0  0  0  0  0  0  0  0  0  0  0  0
   -3.6352   11.9832    0.0000 C   0  0  0  0  0  0  0  0  0  0  0  0
   -3.4117   10.5000    0.0000 C   0  0  0  0  0  0  0  0  0  0  0  0
   -1.9319   10.7457    0.0000 C   0  0  0  0  0  0  0  0  0  0  0  0
   -1.9544   12.2455    0.0000 O   0  0  0  0  0  0  0  0  0  0  0  0
   -0.4455   10.5444    0.0000 N   0  0  0  0  0  0  0  0  0  0  0  0
    0.9155    9.9138    0.0000 C   0  0  0  0  0  0  0  0  0  0  0  0
    1.7419   11.1657    0.0000 C   0  0  0  0  0  0  0  0  0  0  0  0
    1.0709   12.5073    0.0000 C   0  0  0  0  0  0  0  0  0  0  0  0
   -0.4264   12.5970    0.0000 C   0  0  0  0  0  0  0  0  0  0  0  0
   -1.0974   13.9385    0.0000 C   0  0  0  0  0  0  0  0  0  0  0  0
   -0.2710   15.1904    0.0000 C   0  0  0  0  0  0  0  0  0  0  0  0
    1.2263   15.1007    0.0000 C   0  0  0  0  0  0  0  0  0  0  0  0
    2.0526   16.3525    0.0000 C   0  0  0  0  0  0  0  0  0  0  0  0
    3.5500   16.2628    0.0000 C   0  0  0  0  0  0  0  0  0  0  0  0
    4.2209   14.9213    0.0000 C   0  0  0  0  0  0  0  0  0  0  0  0
    3.3946   13.6694    0.0000 C   0  0  0  0  0  0  0  0  0  0  0  0
    1.8973   13.7591    0.0000 C   0  0  0  0  0  0  0  0  0  0  0  0
    2.0303    8.9101    0.0000 C   0  0  0  0  0  0  0  0  0  0  0  0
    3.1889    9.8628    0.0000 O   0  0  0  0  0  0  0  0  0  0  0  0
    2.7996    7.6225    0.0000 N   0  0  0  0  0  0  0  0  0  0  0  0
  1  2  1  0
  2  3  2  0
  2  4  1  0
  4  5  1  6
  5  6  1  0
  6  7  1  0
  7  8  1  0
  8  9  1  0
  9 10  1  0
 10 11  1  0
  4 12  1  0
 12 13  1  0
 13 14  2  0
 15 13  1  6
 15 16  1  0
 16 17  1  0
 17 18  1  0
 18 19  1  0
 19 20  2  0
 20 21  1  0
 21 22  2  0
 22 23  1  0
 23 24  1  0
 24 25  1  0
 25 26  1  0
 26 27  1  0
 27 28  1  0
 28 29  2  0
 28 30  1  0
 30 31  1  0
 31 32  1  0
 32 33  2  0
 32 34  1  0
 34 35  1  0
 35 36  1  0
 36 37  1  0
 38 37  1  1
 38 39  1  0
 39 40  2  0
 39 41  1  0
 41 42  1  0
 42 43  1  1
 43 44  1  0
 44 45  2  0
 45 46  1  0
 46 47  2  0
 47 48  1  0
 48 49  2  0
 49 50  1  0
 50 51  2  0
 51 52  1  0
 52 53  2  0
 42 54  1  0
 54 55  2  0
 54 56  1  0
 11  6  1  0
 56 15  1  0
 23 19  1  0
 38 34  1  0
 53 44  1  0
 53 48  1  0
M  END
>  <molecule_chembl_id>  (1) 
CHEMBL5082248

>  <canonical_smiles>  (1) 
NC(=O)[C@H](CC1CCCCC1)NC(=O)[C@@H]1COCc2cnnn2CCCCC(=O)NCC(=O)N2CCC[C@H]2C(=O)N[C@@H](Cc2cccc3ccccc23)C(=O)N1

>  <pchembl_value_mean>  (1) 
4.0

>  <inchi>  (1) 
InChI=1S/C40H53N9O7/c41-37(52)31(20-26-10-2-1-3-11-26)44-39(54)33-25-56-24-29-22-43-47-49(29)19-7-6-17-35(50)42-23-36(51)48-18-9-16-34(48)40(55)45-32(38(53)46-33)21-28-14-8-13-27-12-4-5-15-30(27)28/h4-5,8,12-15,22,26,31-34H,1-3,6-7,9-11,16-21,23-25H2,(H2,41,52)(H,42,50)(H,44,54)(H,45,55)(H,46,53)/t31-,32-,33-,34-/m0/s1

$$$$

     RDKit          2D

 53 57  0  0  0  0  0  0  0  0999 V2000
   11.7214    3.0233    0.0000 C   0  0  0  0  0  0  0  0  0  0  0  0
   10.2274    2.8889    0.0000 C   0  0  0  0  0  0  0  0  0  0  0  0
    9.3640    4.1154    0.0000 C   0  0  0  0  0  0  0  0  0  0  0  0
    7.8700    3.9810    0.0000 C   0  0  0  0  0  0  0  0  0  0  0  0
    7.0066    5.2076    0.0000 C   0  0  0  0  0  0  0  0  0  0  0  0
    5.5126    5.0731    0.0000 N   0  0  0  0  0  0  0  0  0  0  0  0
    4.6492    6.2997    0.0000 C   0  0  0  0  0  0  0  0  0  0  0  0
    5.2797    7.6607    0.0000 O   0  0  0  0  0  0  0  0  0  0  0  0
    3.1552    6.1652    0.0000 C   0  0  0  0  0  0  0  0  0  0  0  0
    3.0655    4.6679    0.0000 C   0  0  0  0  0  0  0  0  0  0  0  0
    2.5385    3.2636    0.0000 O   0  0  0  0  0  0  0  0  0  0  0  0
    1.6209    2.0770    0.0000 C   0  0  0  0  0  0  0  0  0  0  0  0
    0.3943    1.2135    0.0000 C   0  0  0  0  0  0  0  0  0  0  0  0
    1.2760    0.0000    0.0000 C   0  0  0  0  0  0  0  0  0  0  0  0
    0.3943   -1.2135    0.0000 N   0  0  0  0  0  0  0  0  0  0  0  0
   -1.0323   -0.7500    0.0000 N   0  0  0  0  0  0  0  0  0  0  0  0
   -1.0323    0.7500    0.0000 N   0  0  0  0  0  0  0  0  0  0  0  0
   -2.5321    0.7276    0.0000 C   0  0  0  0  0  0  0  0  0  0  0  0
   -3.9719    1.1482    0.0000 C   0  0  0  0  0  0  0  0  0  0  0  0
   -5.2238    1.9745    0.0000 C   0  0  0  0  0  0  0  0  0  0  0  0
   -6.1765    3.1332    0.0000 C   0  0  0  0  0  0  0  0  0  0  0  0
   -6.7453    4.5211    0.0000 C   0  0  0  0  0  0  0  0  0  0  0  0
   -8.2025    4.1655    0.0000 O   0  0  0  0  0  0  0  0  0  0  0  0
   -6.8798    6.0151    0.0000 N   0  0  0  0  0  0  0  0  0  0  0  0
   -6.5679    7.4823    0.0000 C   0  0  0  0  0  0  0  0  0  0  0  0
   -5.8374    8.7924    0.0000 C   0  0  0  0  0  0  0  0  0  0  0  0
   -7.0240    9.7100    0.0000 O   0  0  0  0  0  0  0  0  0  0  0  0
   -4.7532    9.8290    0.0000 N   0  0  0  0  0  0  0  0  0  0  0  0
   -5.8059   10.8976    0.0000 C   0  0  0  0  0  0  0  0  0  0  0  0
   -5.1150   12.2290    0.0000 C   0  0  0  0  0  0  0  0  0  0  0  0
   -3.6352   11.9832    0.0000 C   0  0  0  0  0  0  0  0  0  0  0  0
   -3.4117   10.5000    0.0000 C   0  0  0  0  0  0  0  0  0  0  0  0
   -1.9319   10.7457    0.0000 C   0  0  0  0  0  0  0  0  0  0  0  0
   -1.9544   12.2455    0.0000 O   0  0  0  0  0  0  0  0  0  0  0  0
   -0.4455   10.5444    0.0000 N   0  0  0  0  0  0  0  0  0  0  0  0
    0.9155    9.9138    0.0000 C   0  0  0  0  0  0  0  0  0  0  0  0
    1.7419   11.1657    0.0000 C   0  0  0  0  0  0  0  0  0  0  0  0
    1.0709   12.5073    0.0000 C   0  0  0  0  0  0  0  0  0  0  0  0
   -0.4264   12.5970    0.0000 C   0  0  0  0  0  0  0  0  0  0  0  0
   -1.0974   13.9385    0.0000 C   0  0  0  0  0  0  0  0  0  0  0  0
   -0.2710   15.1904    0.0000 C   0  0  0  0  0  0  0  0  0  0  0  0
    1.2263   15.1007    0.0000 C   0  0  0  0  0  0  0  0  0  0  0  0
    2.0526   16.3525    0.0000 C   0  0  0  0  0  0  0  0  0  0  0  0
    3.5500   16.2628    0.0000 C   0  0  0  0  0  0  0  0  0  0  0  0
    4.2209   14.9213    0.0000 C   0  0  0  0  0  0  0  0  0  0  0  0
    3.3946   13.6694    0.0000 C   0  0  0  0  0  0  0  0  0  0  0  0
    1.8973   13.7591    0.0000 C   0  0  0  0  0  0  0  0  0  0  0  0
    2.0303    8.9101    0.0000 C   0  0  0  0  0  0  0  0  0  0  0  0
    3.1889    9.8628    0.0000 O   0  0  0  0  0  0  0  0  0  0  0  0
    2.7996    7.6225    0.0000 N   0  0  0  0  0  0  0  0  0  0  0  0
    7.6371    6.5686    0.0000 C   0  0  0  0  0  0  0  0  0  0  0  0
    9.1311    6.7031    0.0000 N   0  0  0  0  0  0  0  0  0  0  0  0
    6.7737    7.7952    0.0000 O   0  0  0  0  0  0  0  0  0  0  0  0
  1  2  1  0
  2  3  1  0
  3  4  1  0
  5  4  1  6
  5  6  1  0
  6  7  1  0
  7  8  2  0
  9  7  1  6
  9 10  1  0
 10 11  1  0
 11 12  1  0
 12 13  1  0
 13 14  2  0
 14 15  1  0
 15 16  2  0
 16 17  1  0
 17 18  1  0
 18 19  1  0
 19 20  1  0
 20 21  1  0
 21 22  1  0
 22 23  2  0
 22 24  1  0
 24 25  1  0
 25 26  1  0
 26 27  2  0
 26 28  1  0
 28 29  1  0
 29 30  1  0
 30 31  1  0
 32 31  1  1
 32 33  1  0
 33 34  2  0
 33 35  1  0
 35 36  1  0
 36 37  1  1
 37 38  1  0
 38 39  2  0
 39 40  1  0
 40 41  2  0
 41 42  1  0
 42 43  2  0
 43 44  1  0
 44 45  2  0
 45 46  1  0
 46 47  2  0
 36 48  1  0
 48 49  2  0
 48 50  1  0
  5 51  1  0
 51 52  1  0
 51 53  2  0
 50  9  1  0
 17 13  1  0
 32 28  1  0
 47 38  1  0
 47 42  1  0
M  END
>  <molecule_chembl_id>  (2) 
CHEMBL5079991

>  <canonical_smiles>  (2) 
CCCC[C@H](NC(=O)[C@@H]1COCc2cnnn2CCCCC(=O)NCC(=O)N2CCC[C@H]2C(=O)N[C@@H](Cc2cccc3ccccc23)C(=O)N1)C(N)=O

>  <pchembl_value_mean>  (2) 
4.0

>  <inchi>  (2) 
InChI=1S/C37H49N9O7/c1-2-3-14-28(34(38)49)41-36(51)30-23-53-22-26-20-40-44-46(26)18-7-6-16-32(47)39-21-33(48)45-17-9-15-31(45)37(52)42-29(35(50)43-30)19-25-12-8-11-24-10-4-5-13-27(24)25/h4-5,8,10-13,20,28-31H,2-3,6-7,9,14-19,21-23H2,1H3,(H2,38,49)(H,39,47)(H,41,51)(H,42,52)(H,43,50)/t28-,29-,30-,31-/m0/s1

$$$$

     RDKit          2D

 54 57  0  0  0  0  0  0  0  0999 V2000
   10.2274    2.8889    0.0000 C   0  0  0  0  0  0  0  0  0  0  0  0
    9.3640    4.1154    0.0000 C   0  0  0  0  0  0  0  0  0  0  0  0
    9.9945    5.4765    0.0000 C   0  0  0  0  0  0  0  0  0  0  0  0
    7.8700    3.9810    0.0000 C   0  0  0  0  0  0  0  0  0  0  0  0
    7.0066    5.2076    0.0000 C   0  0  0  0  0  0  0  0  0  0  0  0
    5.5126    5.0731    0.0000 N   0  0  0  0  0  0  0  0  0  0  0  0
    4.6492    6.2997    0.0000 C   0  0  0  0  0  0  0  0  0  0  0  0
    5.2797    7.6607    0.0000 O   0  0  0  0  0  0  0  0  0  0  0  0
    3.1552    6.1652    0.0000 C   0  0  0  0  0  0  0  0  0  0  0  0
    3.0655    4.6679    0.0000 C   0  0  0  0  0  0  0  0  0  0  0  0
    2.5385    3.2636    0.0000 O   0  0  0  0  0  0  0  0  0  0  0  0
    1.6209    2.0770    0.0000 C   0  0  0  0  0  0  0  0  0  0  0  0
    0.3943    1.2135    0.0000 C   0  0  0  0  0  0  0  0  0  0  0  0
    1.2760    0.0000    0.0000 C   0  0  0  0  0  0  0  0  0  0  0  0
    0.3943   -1.2135    0.0000 N   0  0  0  0  0  0  0  0  0  0  0  0
   -1.0323   -0.7500    0.0000 N   0  0  0  0  0  0  0  0  0  0  0  0
   -1.0323    0.7500    0.0000 N   0  0  0  0  0  0  0  0  0  0  0  0
   -2.5321    0.7276    0.0000 C   0  0  0  0  0  0  0  0  0  0  0  0
   -3.9719    1.1482    0.0000 C   0  0  0  0  0  0  0  0  0  0  0  0
   -5.2238    1.9745    0.0000 C   0  0  0  0  0  0  0  0  0  0  0  0
   -6.1765    3.1332    0.0000 C   0  0  0  0  0  0  0  0  0  0  0  0
   -6.7453    4.5211    0.0000 C   0  0  0  0  0  0  0  0  0  0  0  0
   -8.2025    4.1655    0.0000 O   0  0  0  0  0  0  0  0  0  0  0  0
   -6.8798    6.0151    0.0000 N   0  0  0  0  0  0  0  0  0  0  0  0
   -6.5679    7.4823    0.0000 C   0  0  0  0  0  0  0  0  0  0  0  0
   -5.8374    8.7924    0.0000 C   0  0  0  0  0  0  0  0  0  0  0  0
   -7.0240    9.7100    0.0000 O   0  0  0  0  0  0  0  0  0  0  0  0
   -4.7532    9.8290    0.0000 N   0  0  0  0  0  0  0  0  0  0  0  0
   -5.6166   11.0556    0.0000 C   0  0  0  0  0  0  0  0  0  0  0  0
   -3.4117   10.5000    0.0000 C   0  0  0  0  0  0  0  0  0  0  0  0
   -3.8752   11.9266    0.0000 C   0  0  0  0  0  0  0  0  0  0  0  0
   -2.8715   13.0413    0.0000 C   0  0  0  0  0  0  0  0  0  0  0  0
   -5.3424   12.2384    0.0000 C   0  0  0  0  0  0  0  0  0  0  0  0
   -1.9319   10.7457    0.0000 C   0  0  0  0  0  0  0  0  0  0  0  0
   -1.9544   12.2455    0.0000 O   0  0  0  0  0  0  0  0  0  0  0  0
   -0.4455   10.5444    0.0000 N   0  0  0  0  0  0  0  0  0  0  0  0
    0.9155    9.9138    0.0000 C   0  0  0  0  0  0  0  0  0  0  0  0
    1.7419   11.1657    0.0000 C   0  0  0  0  0  0  0  0  0  0  0  0
    1.0709   12.5073    0.0000 C   0  0  0  0  0  0  0  0  0  0  0  0
   -0.4264   12.5970    0.0000 C   0  0  0  0  0  0  0  0  0  0  0  0
   -1.0974   13.9385    0.0000 C   0  0  0  0  0  0  0  0  0  0  0  0
   -0.2710   15.1904    0.0000 C   0  0  0  0  0  0  0  0  0  0  0  0
    1.2263   15.1007    0.0000 C   0  0  0  0  0  0  0  0  0  0  0  0
    2.0526   16.3525    0.0000 C   0  0  0  0  0  0  0  0  0  0  0  0
    3.5500   16.2628    0.0000 C   0  0  0  0  0  0  0  0  0  0  0  0
    4.2209   14.9213    0.0000 C   0  0  0  0  0  0  0  0  0  0  0  0
    3.3946   13.6694    0.0000 C   0  0  0  0  0  0  0  0  0  0  0  0
    1.8973   13.7591    0.0000 C   0  0  0  0  0  0  0  0  0  0  0  0
    2.0303    8.9101    0.0000 C   0  0  0  0  0  0  0  0  0  0  0  0
    3.1889    9.8628    0.0000 O   0  0  0  0  0  0  0  0  0  0  0  0
    2.7996    7.6225    0.0000 N   0  0  0  0  0  0  0  0  0  0  0  0
    7.6371    6.5686    0.0000 C   0  0  0  0  0  0  0  0  0  0  0  0
    9.1311    6.7031    0.0000 N   0  0  0  0  0  0  0  0  0  0  0  0
    6.7737    7.7952    0.0000 O   0  0  0  0  0  0  0  0  0  0  0  0
  1  2  1  0
  2  3  1  0
  2  4  1  0
  5  4  1  6
  5  6  1  0
  6  7  1  0
  7  8  2  0
  9  7  1  6
  9 10  1  0
 10 11  1  0
 11 12  1  0
 12 13  1  0
 13 14  2  0
 14 15  1  0
 15 16  2  0
 16 17  1  0
 17 18  1  0
 18 19  1  0
 19 20  1  0
 20 21  1  0
 21 22  1  0
 22 23  2  0
 22 24  1  0
 24 25  1  0
 25 26  1  0
 26 27  2  0
 26 28  1  0
 28 29  1  0
 28 30  1  0
 30 31  1  1
 31 32  1  0
 31 33  1  0
 30 34  1  0
 34 35  2  0
 34 36  1  0
 36 37  1  0
 37 38  1  1
 38 39  1  0
 39 40  2  0
 40 41  1  0
 41 42  2  0
 42 43  1  0
 43 44  2  0
 44 45  1  0
 45 46  2  0
 46 47  1  0
 47 48  2  0
 37 49  1  0
 49 50  2  0
 49 51  1  0
  5 52  1  0
 52 53  1  0
 52 54  2  0
 51  9  1  0
 17 13  1  0
 48 39  1  0
 48 43  1  0
M  END
>  <molecule_chembl_id>  (3) 
CHEMBL5082312

>  <canonical_smiles>  (3) 
CC(C)C[C@H](NC(=O)[C@@H]1COCc2cnnn2CCCCC(=O)NCC(=O)N(C)[C@@H](C(C)C)C(=O)N[C@@H](Cc2cccc3ccccc23)C(=O)N1)C(N)=O

>  <pchembl_value_mean>  (3) 
4.0

>  <inchi>  (3) 
InChI=1S/C38H53N9O7/c1-23(2)17-29(35(39)50)42-37(52)31-22-54-21-27-19-41-45-47(27)16-9-8-15-32(48)40-20-33(49)46(5)34(24(3)4)38(53)43-30(36(51)44-31)18-26-13-10-12-25-11-6-7-14-28(25)26/h6-7,10-14,19,23-24,29-31,34H,8-9,15-18,20-22H2,1-5H3,(H2,39,50)(H,40,48)(H,42,52)(H,43,53)(H,44,51)/t29-,30-,31-,34-/m0/s1

$$$$

     RDKit          2D

 49 52  0  0  0  0  0  0  0  0999 V2000
   10.2274    2.8889    0.0000 C   0  0  0  0  0  0  0  0  0  0  0  0
    9.3640    4.1154    0.0000 C   0  0  0  0  0  0  0  0  0  0  0  0
    9.9945    5.4765    0.0000 C   0  0  0  0  0  0  0  0  0  0  0  0
    7.8700    3.9810    0.0000 C   0  0  0  0  0  0  0  0  0  0  0  0
    7.0066    5.2076    0.0000 C   0  0  0  0  0  0  0  0  0  0  0  0
    5.5126    5.0731    0.0000 N   0  0  0  0  0  0  0  0  0  0  0  0
    4.6492    6.2997    0.0000 C   0  0  0  0  0  0  0  0  0  0  0  0
    5.2797    7.6607    0.0000 O   0  0  0  0  0  0  0  0  0  0  0  0
    3.1552    6.1652    0.0000 C   0  0  0  0  0  0  0  0  0  0  0  0
    3.0655    4.6679    0.0000 C   0  0  0  0  0  0  0  0  0  0  0  0
    2.5385    3.2636    0.0000 O   0  0  0  0  0  0  0  0  0  0  0  0
    1.6209    2.0770    0.0000 C   0  0  0  0  0  0  0  0  0  0  0  0
    0.3943    1.2135    0.0000 C   0  0  0  0  0  0  0  0  0  0  0  0
    1.2760    0.0000    0.0000 C   0  0  0  0  0  0  0  0  0  0  0  0
    0.3943   -1.2135    0.0000 N   0  0  0  0  0  0  0  0  0  0  0  0
   -1.0323   -0.7500    0.0000 N   0  0  0  0  0  0  0  0  0  0  0  0
   -1.0323    0.7500    0.0000 N   0  0  0  0  0  0  0  0  0  0  0  0
   -2.5321    0.7276    0.0000 C   0  0  0  0  0  0  0  0  0  0  0  0
   -3.9719    1.1482    0.0000 C   0  0  0  0  0  0  0  0  0  0  0  0
   -5.2238    1.9745    0.0000 C   0  0  0  0  0  0  0  0  0  0  0  0
   -6.1765    3.1332    0.0000 C   0  0  0  0  0  0  0  0  0  0  0  0
   -6.7453    4.5211    0.0000 C   0  0  0  0  0  0  0  0  0  0  0  0
   -8.2025    4.1655    0.0000 O   0  0  0  0  0  0  0  0  0  0  0  0
   -6.8798    6.0151    0.0000 N   0  0  0  0  0  0  0  0  0  0  0  0
   -6.5679    7.4823    0.0000 C   0  0  0  0  0  0  0  0  0  0  0  0
   -5.8374    8.7924    0.0000 C   0  0  0  0  0  0  0  0  0  0  0  0
   -7.0240    9.7100    0.0000 O   0  0  0  0  0  0  0  0  0  0  0  0
   -4.7532    9.8290    0.0000 N   0  0  0  0  0  0  0  0  0  0  0  0
   -5.8059   10.8976    0.0000 C   0  0  0  0  0  0  0  0  0  0  0  0
   -5.1150   12.2290    0.0000 C   0  0  0  0  0  0  0  0  0  0  0  0
   -3.6352   11.9832    0.0000 C   0  0  0  0  0  0  0  0  0  0  0  0
   -3.4117   10.5000    0.0000 C   0  0  0  0  0  0  0  0  0  0  0  0
   -1.9319   10.7457    0.0000 C   0  0  0  0  0  0  0  0  0  0  0  0
   -1.9544   12.2455    0.0000 O   0  0  0  0  0  0  0  0  0  0  0  0
   -0.4455   10.5444    0.0000 N   0  0  0  0  0  0  0  0  0  0  0  0
    0.9155    9.9138    0.0000 C   0  0  0  0  0  0  0  0  0  0  0  0
    1.7419   11.1657    0.0000 C   0  0  0  0  0  0  0  0  0  0  0  0
    1.0709   12.5073    0.0000 C   0  0  0  0  0  0  0  0  0  0  0  0
   -0.4264   12.5970    0.0000 C   0  0  0  0  0  0  0  0  0  0  0  0
   -1.0974   13.9385    0.0000 C   0  0  0  0  0  0  0  0  0  0  0  0
   -0.2710   15.1904    0.0000 C   0  0  0  0  0  0  0  0  0  0  0  0
    1.2263   15.1007    0.0000 C   0  0  0  0  0  0  0  0  0  0  0  0
    1.8973   13.7591    0.0000 C   0  0  0  0  0  0  0  0  0  0  0  0
    2.0303    8.9101    0.0000 C   0  0  0  0  0  0  0  0  0  0  0  0
    3.1889    9.8628    0.0000 O   0  0  0  0  0  0  0  0  0  0  0  0
    2.7996    7.6225    0.0000 N   0  0  0  0  0  0  0  0  0  0  0  0
    7.6371    6.5686    0.0000 C   0  0  0  0  0  0  0  0  0  0  0  0
    9.1311    6.7031    0.0000 N   0  0  0  0  0  0  0  0  0  0  0  0
    6.7737    7.7952    0.0000 O   0  0  0  0  0  0  0  0  0  0  0  0
  1  2  1  0
  2  3  1  0
  2  4  1  0
  5  4  1  6
  5  6  1  0
  6  7  1  0
  7  8  2  0
  9  7  1  6
  9 10  1  0
 10 11  1  0
 11 12  1  0
 12 13  1  0
 13 14  2  0
 14 15  1  0
 15 16  2  0
 16 17  1  0
 17 18  1  0
 18 19  1  0
 19 20  1  0
 20 21  1  0
 21 22  1  0
 22 23  2  0
 22 24  1  0
 24 25  1  0
 25 26  1  0
 26 27  2  0
 26 28  1  0
 28 29  1  0
 29 30  1  0
 30 31  1  0
 32 31  1  1
 32 33  1  0
 33 34  2  0
 33 35  1  0
 35 36  1  0
 36 37  1  1
 37 38  1  0
 38 39  1  0
 39 40  1  0
 40 41  1  0
 41 42  1  0
 42 43  1  0
 36 44  1  0
 44 45  2  0
 44 46  1  0
  5 47  1  0
 47 48  1  0
 47 49  2  0
 46  9  1  0
 17 13  1  0
 32 28  1  0
 43 38  1  0
M  END
>  <molecule_chembl_id>  (4) 
CHEMBL5083076

>  <canonical_smiles>  (4) 
CC(C)C[C@H](NC(=O)[C@@H]1COCc2cnnn2CCCCC(=O)NCC(=O)N2CCC[C@H]2C(=O)N[C@@H](CC2CCCCC2)C(=O)N1)C(N)=O

>  <pchembl_value_mean>  (4) 
4.0

>  <inchi>  (4) 
InChI=1S/C33H53N9O7/c1-21(2)15-24(30(34)45)37-32(47)26-20-49-19-23-17-36-40-42(23)14-7-6-12-28(43)35-18-29(44)41-13-8-11-27(41)33(48)38-25(31(46)39-26)16-22-9-4-3-5-10-22/h17,21-22,24-27H,3-16,18-20H2,1-2H3,(H2,34,45)(H,35,43)(H,37,47)(H,38,48)(H,39,46)/t24-,25-,26-,27-/m0/s1

$$$$

     RDKit          2D

 58 62  0  0  0  0  0  0  0  0999 V2000
   10.2274    2.8889    0.0000 C   0  0  0  0  0  0  0  0  0  0  0  0
    9.3640    4.1154    0.0000 C   0  0  0  0  0  0  0  0  0  0  0  0
    9.9945    5.4765    0.0000 C   0  0  0  0  0  0  0  0  0  0  0  0
    7.8700    3.9810    0.0000 C   0  0  0  0  0  0  0  0  0  0  0  0
    7.0066    5.2076    0.0000 C   0  0  0  0  0  0  0  0  0  0  0  0
    5.5126    5.0731    0.0000 N   0  0  0  0  0  0  0  0  0  0  0  0
    4.6492    6.2997    0.0000 C   0  0  0  0  0  0  0  0  0  0  0  0
    5.2797    7.6607    0.0000 O   0  0  0  0  0  0  0  0  0  0  0  0
    3.1552    6.1652    0.0000 C   0  0  0  0  0  0  0  0  0  0  0  0
    3.0655    4.6679    0.0000 C   0  0  0  0  0  0  0  0  0  0  0  0
    2.5385    3.2636    0.0000 O   0  0  0  0  0  0  0  0  0  0  0  0
    1.6209    2.0770    0.0000 C   0  0  0  0  0  0  0  0  0  0  0  0
    0.3943    1.2135    0.0000 C   0  0  0  0  0  0  0  0  0  0  0  0
    1.2760    0.0000    0.0000 C   0  0  0  0  0  0  0  0  0  0  0  0
    0.3943   -1.2135    0.0000 N   0  0  0  0  0  0  0  0  0  0  0  0
   -1.0323   -0.7500    0.0000 N   0  0  0  0  0  0  0  0  0  0  0  0
   -1.0323    0.7500    0.0000 N   0  0  0  0  0  0  0  0  0  0  0  0
   -2.5321    0.7276    0.0000 C   0  0  0  0  0  0  0  0  0  0  0  0
   -3.9719    1.1482    0.0000 C   0  0  0  0  0  0  0  0  0  0  0  0
   -5.2238    1.9745    0.0000 C   0  0  0  0  0  0  0  0  0  0  0  0
   -6.1765    3.1332    0.0000 C   0  0  0  0  0  0  0  0  0  0  0  0
   -6.7453    4.5211    0.0000 C   0  0  0  0  0  0  0  0  0  0  0  0
   -8.2025    4.1655    0.0000 O   0  0  0  0  0  0  0  0  0  0  0  0
   -6.8798    6.0151    0.0000 N   0  0  0  0  0  0  0  0  0  0  0  0
   -6.5679    7.4823    0.0000 C   0  0  0  0  0  0  0  0  0  0  0  0
   -7.9722    8.0094    0.0000 C   0  0  0  0  0  0  0  0  0  0  0  0
   -9.1309    7.0567    0.0000 C   0  0  0  0  0  0  0  0  0  0  0  0
  -10.5352    7.5838    0.0000 C   0  0  0  0  0  0  0  0  0  0  0  0
  -10.7810    9.0635    0.0000 O   0  0  0  0  0  0  0  0  0  0  0  0
  -11.6939    6.6311    0.0000 O   0  0  0  0  0  0  0  0  0  0  0  0
   -5.8374    8.7924    0.0000 C   0  0  0  0  0  0  0  0  0  0  0  0
   -7.0240    9.7100    0.0000 O   0  0  0  0  0  0  0  0  0  0  0  0
   -4.7532    9.8290    0.0000 N   0  0  0  0  0  0  0  0  0  0  0  0
   -5.8059   10.8976    0.0000 C   0  0  0  0  0  0  0  0  0  0  0  0
   -5.1150   12.2290    0.0000 C   0  0  0  0  0  0  0  0  0  0  0  0
   -3.6352   11.9832    0.0000 C   0  0  0  0  0  0  0  0  0  0  0  0
   -3.4117   10.5000    0.0000 C   0  0  0  0  0  0  0  0  0  0  0  0
   -1.9319   10.7457    0.0000 C   0  0  0  0  0  0  0  0  0  0  0  0
   -1.9544   12.2455    0.0000 O   0  0  0  0  0  0  0  0  0  0  0  0
   -0.4455   10.5444    0.0000 N   0  0  0  0  0  0  0  0  0  0  0  0
    0.9155    9.9138    0.0000 C   0  0  0  0  0  0  0  0  0  0  0  0
    1.7419   11.1657    0.0000 C   0  0  0  0  0  0  0  0  0  0  0  0
    1.0709   12.5073    0.0000 C   0  0  0  0  0  0  0  0  0  0  0  0
   -0.4264   12.5970    0.0000 C   0  0  0  0  0  0  0  0  0  0  0  0
   -1.0974   13.9385    0.0000 C   0  0  0  0  0  0  0  0  0  0  0  0
   -0.2710   15.1904    0.0000 C   0  0  0  0  0  0  0  0  0  0  0  0
    1.2263   15.1007    0.0000 C   0  0  0  0  0  0  0  0  0  0  0  0
    2.0526   16.3525    0.0000 C   0  0  0  0  0  0  0  0  0  0  0  0
    3.5500   16.2628    0.0000 C   0  0  0  0  0  0  0  0  0  0  0  0
    4.2209   14.9213    0.0000 C   0  0  0  0  0  0  0  0  0  0  0  0
    3.3946   13.6694    0.0000 C   0  0  0  0  0  0  0  0  0  0  0  0
    1.8973   13.7591    0.0000 C   0  0  0  0  0  0  0  0  0  0  0  0
    2.0303    8.9101    0.0000 C   0  0  0  0  0  0  0  0  0  0  0  0
    3.1889    9.8628    0.0000 O   0  0  0  0  0  0  0  0  0  0  0  0
    2.7996    7.6225    0.0000 N   0  0  0  0  0  0  0  0  0  0  0  0
    7.6371    6.5686    0.0000 C   0  0  0  0  0  0  0  0  0  0  0  0
    9.1311    6.7031    0.0000 N   0  0  0  0  0  0  0  0  0  0  0  0
    6.7737    7.7952    0.0000 O   0  0  0  0  0  0  0  0  0  0  0  0
  1  2  1  0
  2  3  1  0
  2  4  1  0
  5  4  1  6
  5  6  1  0
  6  7  1  0
  7  8  2  0
  9  7  1  6
  9 10  1  0
 10 11  1  0
 11 12  1  0
 12 13  1  0
 13 14  2  0
 14 15  1  0
 15 16  2  0
 16 17  1  0
 17 18  1  0
 18 19  1  0
 19 20  1  0
 20 21  1  0
 21 22  1  0
 22 23  2  0
 22 24  1  0
 24 25  1  0
 25 26  1  6
 26 27  1  0
 27 28  1  0
 28 29  2  0
 28 30  1  0
 25 31  1  0
 31 32  2  0
 31 33  1  0
 33 34  1  0
 34 35  1  0
 35 36  1  0
 37 36  1  1
 37 38  1  0
 38 39  2  0
 38 40  1  0
 40 41  1  0
 41 42  1  1
 42 43  1  0
 43 44  2  0
 44 45  1  0
 45 46  2  0
 46 47  1  0
 47 48  2  0
 48 49  1  0
 49 50  2  0
 50 51  1  0
 51 52  2  0
 41 53  1  0
 53 54  2  0
 53 55  1  0
  5 56  1  0
 56 57  1  0
 56 58  2  0
 55  9  1  0
 17 13  1  0
 37 33  1  0
 52 43  1  0
 52 47  1  0
M  END
>  <molecule_chembl_id>  (5) 
CHEMBL5078080

>  <canonical_smiles>  (5) 
CC(C)C[C@H](NC(=O)[C@@H]1COCc2cnnn2CCCCC(=O)N[C@H](CCC(=O)O)C(=O)N2CCC[C@H]2C(=O)N[C@@H](Cc2cccc3ccccc23)C(=O)N1)C(N)=O

>  <pchembl_value_mean>  (5) 
4.0

>  <inchi>  (5) 
InChI=1S/C40H53N9O9/c1-24(2)19-30(36(41)53)44-38(55)32-23-58-22-27-21-42-47-49(27)18-6-5-14-34(50)43-29(15-16-35(51)52)40(57)48-17-8-13-33(48)39(56)45-31(37(54)46-32)20-26-11-7-10-25-9-3-4-12-28(25)26/h3-4,7,9-12,21,24,29-33H,5-6,8,13-20,22-23H2,1-2H3,(H2,41,53)(H,43,50)(H,44,55)(H,45,56)(H,46,54)(H,51,52)/t29-,30+,31+,32+,33+/m1/s1

$$$$

     RDKit          2D

 23 24  0  0  0  0  0  0  0  0999 V2000
    5.2500   -1.2990    0.0000 C   0  0  0  0  0  0  0  0  0  0  0  0
    3.7500   -1.2990    0.0000 C   0  0  0  0  0  0  0  0  0  0  0  0
    3.0000    0.0000    0.0000 C   0  0  0  0  0  0  0  0  0  0  0  0
    3.7500    1.2990    0.0000 O   0  0  0  0  0  0  0  0  0  0  0  0
    1.5000    0.0000    0.0000 N   0  0  0  0  0  0  0  0  0  0  0  0
    0.7500   -1.2990    0.0000 C   0  0  0  0  0  0  0  0  0  0  0  0
   -0.7500   -1.2990    0.0000 C   0  0  0  0  0  0  0  0  0  0  0  0
   -1.5000    0.0000    0.0000 N   0  0  0  0  0  0  0  0  0  0  0  0
   -3.0000    0.0000    0.0000 C   0  0  0  0  0  0  0  0  0  0  0  0
   -3.7500   -1.2990    0.0000 O   0  0  0  0  0  0  0  0  0  0  0  0
   -3.7500    1.2990    0.0000 C   0  0  0  0  0  0  0  0  0  0  0  0
   -5.2500    1.2990    0.0000 N   0  0  0  0  0  0  0  0  0  0  0  0
   -6.0000    2.5981    0.0000 C   0  0  0  0  0  0  0  0  0  0  0  0
   -5.2500    3.8971    0.0000 C   0  0  0  0  0  0  0  0  0  0  0  0
   -6.0000    5.1962    0.0000 C   0  0  0  0  0  0  0  0  0  0  0  0
   -5.2500    6.4952    0.0000 I   0  0  0  0  0  0  0  0  0  0  0  0
   -7.5000    5.1962    0.0000 C   0  0  0  0  0  0  0  0  0  0  0  0
   -8.2500    6.4952    0.0000 Cl  0  0  0  0  0  0  0  0  0  0  0  0
   -8.2500    3.8971    0.0000 C   0  0  0  0  0  0  0  0  0  0  0  0
   -7.5000    2.5981    0.0000 C   0  0  0  0  0  0  0  0  0  0  0  0
   -8.2500    1.2990    0.0000 O   0  0  0  0  0  0  0  0  0  0  0  0
   -0.7500    1.2990    0.0000 C   0  0  0  0  0  0  0  0  0  0  0  0
    0.7500    1.2990    0.0000 C   0  0  0  0  0  0  0  0  0  0  0  0
  1  2  2  0
  2  3  1  0
  3  4  2  0
  3  5  1  0
  5  6  1  0
  6  7  1  0
  7  8  1  0
  8  9  1  0
  9 10  2  0
  9 11  1  0
 11 12  1  0
 12 13  1  0
 13 14  2  0
 14 15  1  0
 15 16  1  0
 15 17  2  0
 17 18  1  0
 17 19  1  0
 19 20  2  0
 20 21  1  0
  8 22  1  0
 22 23  1  0
 23  5  1  0
 20 13  1  0
M  END
>  <molecule_chembl_id>  (6) 
CHEMBL4293433

>  <canonical_smiles>  (6) 
C=CC(=O)N1CCN(C(=O)CNc2cc(I)c(Cl)cc2O)CC1

>  <pchembl_value_mean>  (6) 
4.0

>  <inchi>  (6) 
InChI=1S/C15H17ClIN3O3/c1-2-14(22)19-3-5-20(6-4-19)15(23)9-18-12-8-11(17)10(16)7-13(12)21/h2,7-8,18,21H,1,3-6,9H2

$$$$

     RDKit          2D

 42 43  0  0  0  0  0  0  0  0999 V2000
   -7.3480    7.2888    0.0000 C   0  0  0  0  0  0  0  0  0  0  0  0
   -6.1060    6.4478    0.0000 C   0  0  0  0  0  0  0  0  0  0  0  0
   -5.0720    7.5344    0.0000 C   0  0  0  0  0  0  0  0  0  0  0  0
   -4.4468    8.8979    0.0000 C   0  0  0  0  0  0  0  0  0  0  0  0
   -3.1160    9.5899    0.0000 C   0  0  0  0  0  0  0  0  0  0  0  0
   -1.6325    9.8123    0.0000 O   0  0  0  0  0  0  0  0  0  0  0  0
   -0.1573    9.5410    0.0000 C   0  0  0  0  0  0  0  0  0  0  0  0
    1.1500    8.8054    0.0000 C   0  0  0  0  0  0  0  0  0  0  0  0
    2.0907    9.9737    0.0000 C   0  0  0  0  0  0  0  0  0  0  0  0
    1.5493   11.3726    0.0000 O   0  0  0  0  0  0  0  0  0  0  0  0
    3.5729    9.7431    0.0000 N   0  0  0  0  0  0  0  0  0  0  0  0
    4.5137   10.9114    0.0000 C   0  0  0  0  0  0  0  0  0  0  0  0
    5.9958   10.6809    0.0000 C   0  0  0  0  0  0  0  0  0  0  0  0
    6.9366   11.8492    0.0000 C   0  0  0  0  0  0  0  0  0  0  0  0
    8.4188   11.6186    0.0000 C   0  0  0  0  0  0  0  0  0  0  0  0
    6.3952   13.2481    0.0000 C   0  0  0  0  0  0  0  0  0  0  0  0
    3.9722   12.3103    0.0000 C   0  0  0  0  0  0  0  0  0  0  0  0
    4.9130   13.4786    0.0000 N   0  0  0  0  0  0  0  0  0  0  0  0
    2.4901   12.5409    0.0000 O   0  0  0  0  0  0  0  0  0  0  0  0
    2.1475    7.6851    0.0000 N   0  0  0  0  0  0  0  0  0  0  0  0
    2.7272    6.3017    0.0000 C   0  0  0  0  0  0  0  0  0  0  0  0
    4.1872    6.6458    0.0000 O   0  0  0  0  0  0  0  0  0  0  0  0
    2.8264    4.8050    0.0000 C   0  0  0  0  0  0  0  0  0  0  0  0
    4.3190    4.6564    0.0000 C   0  0  0  0  0  0  0  0  0  0  0  0
    4.9366    3.2895    0.0000 C   0  0  0  0  0  0  0  0  0  0  0  0
    5.1940    5.8748    0.0000 C   0  0  0  0  0  0  0  0  0  0  0  0
    6.6866    5.7262    0.0000 C   0  0  0  0  0  0  0  0  0  0  0  0
    2.4342    3.3572    0.0000 N   0  0  0  0  0  0  0  0  0  0  0  0
    1.5931    2.1151    0.0000 C   0  0  0  0  0  0  0  0  0  0  0  0
    2.6797    1.0811    0.0000 O   0  0  0  0  0  0  0  0  0  0  0  0
    0.3943    1.2135    0.0000 C   0  0  0  0  0  0  0  0  0  0  0  0
    1.2760    0.0000    0.0000 C   0  0  0  0  0  0  0  0  0  0  0  0
    0.3943   -1.2135    0.0000 C   0  0  0  0  0  0  0  0  0  0  0  0
   -1.0323   -0.7500    0.0000 C   0  0  0  0  0  0  0  0  0  0  0  0
   -1.0323    0.7500    0.0000 N   0  0  0  0  0  0  0  0  0  0  0  0
   -2.5321    0.7748    0.0000 C   0  0  0  0  0  0  0  0  0  0  0  0
   -2.8034   -0.7005    0.0000 O   0  0  0  0  0  0  0  0  0  0  0  0
   -3.9426    1.2852    0.0000 C   0  0  0  0  0  0  0  0  0  0  0  0
   -5.1109    2.2260    0.0000 N   0  0  0  0  0  0  0  0  0  0  0  0
   -5.9104    3.4951    0.0000 C   0  0  0  0  0  0  0  0  0  0  0  0
   -7.2939    2.9154    0.0000 O   0  0  0  0  0  0  0  0  0  0  0  0
   -6.2546    4.9551    0.0000 C   0  0  0  0  0  0  0  0  0  0  0  0
  1  2  2  0
  2  3  1  0
  3  4  2  0
  4  5  1  0
  5  6  1  0
  6  7  1  0
  7  8  1  0
  8  9  1  1
  9 10  2  0
  9 11  1  0
 11 12  1  0
 12 13  1  6
 13 14  1  0
 14 15  1  0
 14 16  1  0
 12 17  1  0
 17 18  1  0
 17 19  2  0
  8 20  1  0
 20 21  1  0
 21 22  2  0
 21 23  1  0
 23 24  1  0
 24 25  1  6
 24 26  1  0
 26 27  1  0
 23 28  1  6
 28 29  1  0
 29 30  2  0
 29 31  1  0
 31 32  1  6
 32 33  1  0
 33 34  1  0
 34 35  1  0
 35 36  1  0
 36 37  2  0
 36 38  1  0
 38 39  1  0
 39 40  1  0
 40 41  2  0
 40 42  1  0
 42  2  1  0
 35 31  1  0
M  END
>  <molecule_chembl_id>  (7) 
CHEMBL5088053

>  <canonical_smiles>  (7) 
C=C1/C=C/COC[C@@H](C(=O)N[C@@H](CC(C)C)C(N)=O)NC(=O)[C@H]([C@@H](C)CC)NC(=O)[C@@H]2CCCN2C(=O)CNC(=O)C1

>  <pchembl_value_mean>  (7) 
4.01

>  <inchi>  (7) 
InChI=1S/C29H46N6O7/c1-6-19(5)25-29(41)33-21(27(39)32-20(26(30)38)13-17(2)3)16-42-12-8-9-18(4)14-23(36)31-15-24(37)35-11-7-10-22(35)28(40)34-25/h8-9,17,19-22,25H,4,6-7,10-16H2,1-3,5H3,(H2,30,38)(H,31,36)(H,32,39)(H,33,41)(H,34,40)/b9-8+/t19-,20-,21-,22-,25-/m0/s1

$$$$

     RDKit          2D

 54 58  0  0  0  0  0  0  0  0999 V2000
   10.2274    2.8889    0.0000 C   0  0  0  0  0  0  0  0  0  0  0  0
    9.3640    4.1154    0.0000 C   0  0  0  0  0  0  0  0  0  0  0  0
    9.9945    5.4765    0.0000 C   0  0  0  0  0  0  0  0  0  0  0  0
    7.8700    3.9810    0.0000 C   0  0  0  0  0  0  0  0  0  0  0  0
    7.0066    5.2076    0.0000 C   0  0  0  0  0  0  0  0  0  0  0  0
    5.5126    5.0731    0.0000 N   0  0  0  0  0  0  0  0  0  0  0  0
    4.6492    6.2997    0.0000 C   0  0  0  0  0  0  0  0  0  0  0  0
    5.2797    7.6607    0.0000 O   0  0  0  0  0  0  0  0  0  0  0  0
    3.1552    6.1652    0.0000 C   0  0  0  0  0  0  0  0  0  0  0  0
    3.0655    4.6679    0.0000 C   0  0  0  0  0  0  0  0  0  0  0  0
    2.5385    3.2636    0.0000 O   0  0  0  0  0  0  0  0  0  0  0  0
    1.6209    2.0770    0.0000 C   0  0  0  0  0  0  0  0  0  0  0  0
    0.3943    1.2135    0.0000 C   0  0  0  0  0  0  0  0  0  0  0  0
    1.2760    0.0000    0.0000 C   0  0  0  0  0  0  0  0  0  0  0  0
    0.3943   -1.2135    0.0000 N   0  0  0  0  0  0  0  0  0  0  0  0
   -1.0323   -0.7500    0.0000 N   0  0  0  0  0  0  0  0  0  0  0  0
   -1.0323    0.7500    0.0000 N   0  0  0  0  0  0  0  0  0  0  0  0
   -2.5321    0.7276    0.0000 C   0  0  0  0  0  0  0  0  0  0  0  0
   -3.9719    1.1482    0.0000 C   0  0  0  0  0  0  0  0  0  0  0  0
   -5.2238    1.9745    0.0000 C   0  0  0  0  0  0  0  0  0  0  0  0
   -6.1765    3.1332    0.0000 C   0  0  0  0  0  0  0  0  0  0  0  0
   -6.7453    4.5211    0.0000 C   0  0  0  0  0  0  0  0  0  0  0  0
   -8.2025    4.1655    0.0000 O   0  0  0  0  0  0  0  0  0  0  0  0
   -6.8798    6.0151    0.0000 N   0  0  0  0  0  0  0  0  0  0  0  0
   -6.5679    7.4823    0.0000 C   0  0  0  0  0  0  0  0  0  0  0  0
   -5.8374    8.7924    0.0000 C   0  0  0  0  0  0  0  0  0  0  0  0
   -7.0240    9.7100    0.0000 O   0  0  0  0  0  0  0  0  0  0  0  0
   -4.7532    9.8290    0.0000 N   0  0  0  0  0  0  0  0  0  0  0  0
   -5.8059   10.8976    0.0000 C   0  0  0  0  0  0  0  0  0  0  0  0
   -5.1150   12.2290    0.0000 C   0  0  0  0  0  0  0  0  0  0  0  0
   -5.7859   13.5705    0.0000 O   0  0  0  0  0  0  0  0  0  0  0  0
   -3.6352   11.9832    0.0000 C   0  0  0  0  0  0  0  0  0  0  0  0
   -3.4117   10.5000    0.0000 C   0  0  0  0  0  0  0  0  0  0  0  0
   -1.9319   10.7457    0.0000 C   0  0  0  0  0  0  0  0  0  0  0  0
   -1.9544   12.2455    0.0000 O   0  0  0  0  0  0  0  0  0  0  0  0
   -0.4455   10.5444    0.0000 N   0  0  0  0  0  0  0  0  0  0  0  0
    0.9155    9.9138    0.0000 C   0  0  0  0  0  0  0  0  0  0  0  0
    1.7419   11.1657    0.0000 C   0  0  0  0  0  0  0  0  0  0  0  0
    1.0709   12.5073    0.0000 C   0  0  0  0  0  0  0  0  0  0  0  0
   -0.4264   12.5970    0.0000 C   0  0  0  0  0  0  0  0  0  0  0  0
   -1.0974   13.9385    0.0000 C   0  0  0  0  0  0  0  0  0  0  0  0
   -0.2710   15.1904    0.0000 C   0  0  0  0  0  0  0  0  0  0  0  0
    1.2263   15.1007    0.0000 C   0  0  0  0  0  0  0  0  0  0  0  0
    2.0526   16.3525    0.0000 C   0  0  0  0  0  0  0  0  0  0  0  0
    3.5500   16.2628    0.0000 C   0  0  0  0  0  0  0  0  0  0  0  0
    4.2209   14.9213    0.0000 C   0  0  0  0  0  0  0  0  0  0  0  0
    3.3946   13.6694    0.0000 C   0  0  0  0  0  0  0  0  0  0  0  0
    1.8973   13.7591    0.0000 C   0  0  0  0  0  0  0  0  0  0  0  0
    2.0303    8.9101    0.0000 C   0  0  0  0  0  0  0  0  0  0  0  0
    3.1889    9.8628    0.0000 O   0  0  0  0  0  0  0  0  0  0  0  0
    2.7996    7.6225    0.0000 N   0  0  0  0  0  0  0  0  0  0  0  0
    7.6371    6.5686    0.0000 C   0  0  0  0  0  0  0  0  0  0  0  0
    9.1311    6.7031    0.0000 N   0  0  0  0  0  0  0  0  0  0  0  0
    6.7737    7.7952    0.0000 O   0  0  0  0  0  0  0  0  0  0  0  0
  1  2  1  0
  2  3  1  0
  2  4  1  0
  5  4  1  6
  5  6  1  0
  6  7  1  0
  7  8  2  0
  9  7  1  6
  9 10  1  0
 10 11  1  0
 11 12  1  0
 12 13  1  0
 13 14  2  0
 14 15  1  0
 15 16  2  0
 16 17  1  0
 17 18  1  0
 18 19  1  0
 19 20  1  0
 20 21  1  0
 21 22  1  0
 22 23  2  0
 22 24  1  0
 24 25  1  0
 25 26  1  0
 26 27  2  0
 26 28  1  0
 28 29  1  0
 29 30  1  0
 30 31  1  6
 30 32  1  0
 33 32  1  1
 33 34  1  0
 34 35  2  0
 34 36  1  0
 36 37  1  0
 37 38  1  1
 38 39  1  0
 39 40  2  0
 40 41  1  0
 41 42  2  0
 42 43  1  0
 43 44  2  0
 44 45  1  0
 45 46  2  0
 46 47  1  0
 47 48  2  0
 37 49  1  0
 49 50  2  0
 49 51  1  0
  5 52  1  0
 52 53  1  0
 52 54  2  0
 51  9  1  0
 17 13  1  0
 33 28  1  0
 48 39  1  0
 48 43  1  0
M  END
>  <molecule_chembl_id>  (8) 
CHEMBL5078607

>  <canonical_smiles>  (8) 
CC(C)C[C@H](NC(=O)[C@@H]1COCc2cnnn2CCCCC(=O)NCC(=O)N2C[C@H](O)C[C@H]2C(=O)N[C@@H](Cc2cccc3ccccc23)C(=O)N1)C(N)=O

>  <pchembl_value_mean>  (8) 
4.02

>  <inchi>  (8) 
InChI=1S/C37H49N9O8/c1-22(2)14-28(34(38)50)41-36(52)30-21-54-20-25-17-40-44-46(25)13-6-5-12-32(48)39-18-33(49)45-19-26(47)16-31(45)37(53)42-29(35(51)43-30)15-24-10-7-9-23-8-3-4-11-27(23)24/h3-4,7-11,17,22,26,28-31,47H,5-6,12-16,18-21H2,1-2H3,(H2,38,50)(H,39,48)(H,41,52)(H,42,53)(H,43,51)/t26-,28+,29+,30+,31+/m1/s1

$$$$

     RDKit          2D

 43 45  0  0  0  0  0  0  0  0999 V2000
   10.2274    2.8889    0.0000 C   0  0  0  0  0  0  0  0  0  0  0  0
    9.3640    4.1154    0.0000 C   0  0  0  0  0  0  0  0  0  0  0  0
    9.9945    5.4765    0.0000 C   0  0  0  0  0  0  0  0  0  0  0  0
    7.8700    3.9810    0.0000 C   0  0  0  0  0  0  0  0  0  0  0  0
    7.0066    5.2076    0.0000 C   0  0  0  0  0  0  0  0  0  0  0  0
    5.5126    5.0731    0.0000 C   0  0  0  0  0  0  0  0  0  0  0  0
    4.6492    6.2997    0.0000 C   0  0  0  0  0  0  0  0  0  0  0  0
    5.2797    7.6607    0.0000 O   0  0  0  0  0  0  0  0  0  0  0  0
    3.1552    6.1652    0.0000 C   0  0  0  0  0  0  0  0  0  0  0  0
    3.0655    4.6679    0.0000 C   0  0  0  0  0  0  0  0  0  0  0  0
    2.5385    3.2636    0.0000 O   0  0  0  0  0  0  0  0  0  0  0  0
    1.6209    2.0770    0.0000 C   0  0  0  0  0  0  0  0  0  0  0  0
    0.3943    1.2135    0.0000 C   0  0  0  0  0  0  0  0  0  0  0  0
    1.2760    0.0000    0.0000 C   0  0  0  0  0  0  0  0  0  0  0  0
    0.3943   -1.2135    0.0000 N   0  0  0  0  0  0  0  0  0  0  0  0
   -1.0323   -0.7500    0.0000 N   0  0  0  0  0  0  0  0  0  0  0  0
   -1.0323    0.7500    0.0000 N   0  0  0  0  0  0  0  0  0  0  0  0
   -2.5321    0.7276    0.0000 C   0  0  0  0  0  0  0  0  0  0  0  0
   -3.9719    1.1482    0.0000 C   0  0  0  0  0  0  0  0  0  0  0  0
   -5.2238    1.9745    0.0000 C   0  0  0  0  0  0  0  0  0  0  0  0
   -6.1765    3.1332    0.0000 C   0  0  0  0  0  0  0  0  0  0  0  0
   -6.7453    4.5211    0.0000 C   0  0  0  0  0  0  0  0  0  0  0  0
   -8.2025    4.1655    0.0000 O   0  0  0  0  0  0  0  0  0  0  0  0
   -6.8798    6.0151    0.0000 N   0  0  0  0  0  0  0  0  0  0  0  0
   -6.5679    7.4823    0.0000 C   0  0  0  0  0  0  0  0  0  0  0  0
   -5.8374    8.7924    0.0000 C   0  0  0  0  0  0  0  0  0  0  0  0
   -7.0240    9.7100    0.0000 O   0  0  0  0  0  0  0  0  0  0  0  0
   -4.7532    9.8290    0.0000 N   0  0  0  0  0  0  0  0  0  0  0  0
   -5.8059   10.8976    0.0000 C   0  0  0  0  0  0  0  0  0  0  0  0
   -5.1150   12.2290    0.0000 C   0  0  0  0  0  0  0  0  0  0  0  0
   -3.6352   11.9832    0.0000 C   0  0  0  0  0  0  0  0  0  0  0  0
   -3.4117   10.5000    0.0000 C   0  0  0  0  0  0  0  0  0  0  0  0
   -1.9319   10.7457    0.0000 C   0  0  0  0  0  0  0  0  0  0  0  0
   -1.9544   12.2455    0.0000 O   0  0  0  0  0  0  0  0  0  0  0  0
   -0.4455   10.5444    0.0000 C   0  0  0  0  0  0  0  0  0  0  0  0
    0.9155    9.9138    0.0000 C   0  0  0  0  0  0  0  0  0  0  0  0
    1.7419   11.1657    0.0000 C   0  0  0  0  0  0  0  0  0  0  0  0
    2.0303    8.9101    0.0000 C   0  0  0  0  0  0  0  0  0  0  0  0
    3.1889    9.8628    0.0000 O   0  0  0  0  0  0  0  0  0  0  0  0
    2.7996    7.6225    0.0000 C   0  0  0  0  0  0  0  0  0  0  0  0
    7.6371    6.5686    0.0000 C   0  0  0  0  0  0  0  0  0  0  0  0
    9.1311    6.7031    0.0000 N   0  0  0  0  0  0  0  0  0  0  0  0
    6.7737    7.7952    0.0000 O   0  0  0  0  0  0  0  0  0  0  0  0
  1  2  1  0
  2  3  1  0
  2  4  1  0
  5  4  1  6
  5  6  1  0
  6  7  1  0
  7  8  2  0
  9  7  1  6
  9 10  1  0
 10 11  1  0
 11 12  1  0
 12 13  1  0
 13 14  2  0
 14 15  1  0
 15 16  2  0
 16 17  1  0
 17 18  1  0
 18 19  1  0
 19 20  1  0
 20 21  1  0
 21 22  1  0
 22 23  2  0
 22 24  1  0
 24 25  1  0
 25 26  1  0
 26 27  2  0
 26 28  1  0
 28 29  1  0
 29 30  1  0
 30 31  1  0
 32 31  1  1
 32 33  1  0
 33 34  2  0
 33 35  1  0
 35 36  1  0
 36 37  1  1
 36 38  1  0
 38 39  2  0
 38 40  1  0
  5 41  1  0
 41 42  1  0
 41 43  2  0
 40  9  1  0
 17 13  1  0
 32 28  1  0
M  END
>  <molecule_chembl_id>  (9) 
CHEMBL5081452

>  <canonical_smiles>  (9) 
CC(C)C[C@H](CC(=O)[C@@H]1COCc2cnnn2CCCCC(=O)NCC(=O)N2CCC[C@H]2C(=O)C[C@@H](C)C(=O)C1)C(N)=O

>  <pchembl_value_mean>  (9) 
4.04

>  <inchi>  (9) 
InChI=1S/C30H46N6O7/c1-19(2)11-21(30(31)42)13-26(38)22-14-25(37)20(3)12-27(39)24-7-6-9-35(24)29(41)16-32-28(40)8-4-5-10-36-23(15-33-34-36)18-43-17-22/h15,19-22,24H,4-14,16-18H2,1-3H3,(H2,31,42)(H,32,40)/t20-,21-,22+,24+/m1/s1

$$$$

     RDKit          2D

 52 56  0  0  0  0  0  0  0  0999 V2000
   10.2274    2.8889    0.0000 C   0  0  0  0  0  0  0  0  0  0  0  0
    9.3640    4.1154    0.0000 C   0  0  0  0  0  0  0  0  0  0  0  0
    9.9945    5.4765    0.0000 C   0  0  0  0  0  0  0  0  0  0  0  0
    7.8700    3.9810    0.0000 C   0  0  0  0  0  0  0  0  0  0  0  0
    7.0066    5.2076    0.0000 C   0  0  0  0  0  0  0  0  0  0  0  0
    5.5126    5.0731    0.0000 N   0  0  0  0  0  0  0  0  0  0  0  0
    4.6492    6.2997    0.0000 C   0  0  0  0  0  0  0  0  0  0  0  0
    5.2797    7.6607    0.0000 O   0  0  0  0  0  0  0  0  0  0  0  0
    3.1552    6.1652    0.0000 C   0  0  0  0  0  0  0  0  0  0  0  0
    3.0655    4.6679    0.0000 C   0  0  0  0  0  0  0  0  0  0  0  0
    2.5385    3.2636    0.0000 O   0  0  0  0  0  0  0  0  0  0  0  0
    1.6209    2.0770    0.0000 C   0  0  0  0  0  0  0  0  0  0  0  0
    0.3943    1.2135    0.0000 C   0  0  0  0  0  0  0  0  0  0  0  0
    1.2760    0.0000    0.0000 C   0  0  0  0  0  0  0  0  0  0  0  0
    0.3943   -1.2135    0.0000 N   0  0  0  0  0  0  0  0  0  0  0  0
   -1.0323   -0.7500    0.0000 N   0  0  0  0  0  0  0  0  0  0  0  0
   -1.0323    0.7500    0.0000 N   0  0  0  0  0  0  0  0  0  0  0  0
   -2.5321    0.7276    0.0000 C   0  0  0  0  0  0  0  0  0  0  0  0
   -3.9719    1.1482    0.0000 C   0  0  0  0  0  0  0  0  0  0  0  0
   -5.2238    1.9745    0.0000 C   0  0  0  0  0  0  0  0  0  0  0  0
   -6.1765    3.1332    0.0000 C   0  0  0  0  0  0  0  0  0  0  0  0
   -6.7453    4.5211    0.0000 C   0  0  0  0  0  0  0  0  0  0  0  0
   -6.8798    6.0151    0.0000 C   0  0  0  0  0  0  0  0  0  0  0  0
   -6.5679    7.4823    0.0000 C   0  0  0  0  0  0  0  0  0  0  0  0
   -5.8374    8.7924    0.0000 C   0  0  0  0  0  0  0  0  0  0  0  0
   -7.0240    9.7100    0.0000 O   0  0  0  0  0  0  0  0  0  0  0  0
   -4.7532    9.8290    0.0000 N   0  0  0  0  0  0  0  0  0  0  0  0
   -5.8059   10.8976    0.0000 C   0  0  0  0  0  0  0  0  0  0  0  0
   -5.1150   12.2290    0.0000 C   0  0  0  0  0  0  0  0  0  0  0  0
   -3.6352   11.9832    0.0000 C   0  0  0  0  0  0  0  0  0  0  0  0
   -3.4117   10.5000    0.0000 C   0  0  0  0  0  0  0  0  0  0  0  0
   -1.9319   10.7457    0.0000 C   0  0  0  0  0  0  0  0  0  0  0  0
   -1.9544   12.2455    0.0000 O   0  0  0  0  0  0  0  0  0  0  0  0
   -0.4455   10.5444    0.0000 N   0  0  0  0  0  0  0  0  0  0  0  0
    0.9155    9.9138    0.0000 C   0  0  0  0  0  0  0  0  0  0  0  0
    1.7419   11.1657    0.0000 C   0  0  0  0  0  0  0  0  0  0  0  0
    1.0709   12.5073    0.0000 C   0  0  0  0  0  0  0  0  0  0  0  0
   -0.4264   12.5970    0.0000 C   0  0  0  0  0  0  0  0  0  0  0  0
   -1.0974   13.9385    0.0000 C   0  0  0  0  0  0  0  0  0  0  0  0
   -0.2710   15.1904    0.0000 C   0  0  0  0  0  0  0  0  0  0  0  0
    1.2263   15.1007    0.0000 C   0  0  0  0  0  0  0  0  0  0  0  0
    2.0526   16.3525    0.0000 C   0  0  0  0  0  0  0  0  0  0  0  0
    3.5500   16.2628    0.0000 C   0  0  0  0  0  0  0  0  0  0  0  0
    4.2209   14.9213    0.0000 C   0  0  0  0  0  0  0  0  0  0  0  0
    3.3946   13.6694    0.0000 C   0  0  0  0  0  0  0  0  0  0  0  0
    1.8973   13.7591    0.0000 C   0  0  0  0  0  0  0  0  0  0  0  0
    2.0303    8.9101    0.0000 C   0  0  0  0  0  0  0  0  0  0  0  0
    3.1889    9.8628    0.0000 O   0  0  0  0  0  0  0  0  0  0  0  0
    2.7996    7.6225    0.0000 N   0  0  0  0  0  0  0  0  0  0  0  0
    7.6371    6.5686    0.0000 C   0  0  0  0  0  0  0  0  0  0  0  0
    9.1311    6.7031    0.0000 N   0  0  0  0  0  0  0  0  0  0  0  0
    6.7737    7.7952    0.0000 O   0  0  0  0  0  0  0  0  0  0  0  0
  1  2  1  0
  2  3  1  0
  2  4  1  0
  5  4  1  6
  5  6  1  0
  6  7  1  0
  7  8  2  0
  9  7  1  6
  9 10  1  0
 10 11  1  0
 11 12  1  0
 12 13  1  0
 13 14  2  0
 14 15  1  0
 15 16  2  0
 16 17  1  0
 17 18  1  0
 18 19  1  0
 19 20  1  0
 20 21  1  0
 21 22  1  0
 22 23  1  0
 23 24  1  0
 24 25  1  0
 25 26  2  0
 25 27  1  0
 27 28  1  0
 28 29  1  0
 29 30  1  0
 31 30  1  1
 31 32  1  0
 32 33  2  0
 32 34  1  0
 34 35  1  0
 35 36  1  1
 36 37  1  0
 37 38  2  0
 38 39  1  0
 39 40  2  0
 40 41  1  0
 41 42  2  0
 42 43  1  0
 43 44  2  0
 44 45  1  0
 45 46  2  0
 35 47  1  0
 47 48  2  0
 47 49  1  0
  5 50  1  0
 50 51  1  0
 50 52  2  0
 49  9  1  0
 17 13  1  0
 31 27  1  0
 46 37  1  0
 46 41  1  0
M  END
>  <molecule_chembl_id>  (10) 
CHEMBL5093669

>  <canonical_smiles>  (10) 
CC(C)C[C@H](NC(=O)[C@@H]1COCc2cnnn2CCCCCCCC(=O)N2CCC[C@H]2C(=O)N[C@@H](Cc2cccc3ccccc23)C(=O)N1)C(N)=O

>  <pchembl_value_mean>  (10) 
4.09

>  <inchi>  (10) 
InChI=1S/C38H52N8O6/c1-25(2)20-30(35(39)48)41-37(50)32-24-52-23-28-22-40-44-46(28)19-9-5-3-4-6-17-34(47)45-18-11-16-33(45)38(51)42-31(36(49)43-32)21-27-14-10-13-26-12-7-8-15-29(26)27/h7-8,10,12-15,22,25,30-33H,3-6,9,11,16-21,23-24H2,1-2H3,(H2,39,48)(H,41,50)(H,42,51)(H,43,49)/t30-,31-,32-,33-/m0/s1

$$$$

     RDKit          2D

 55 60  0  0  0  0  0  0  0  0999 V2000
    9.1311    6.7031    0.0000 N   0  0  0  0  0  0  0  0  0  0  0  0
    7.6371    6.5686    0.0000 C   0  0  0  0  0  0  0  0  0  0  0  0
    6.7737    7.7952    0.0000 O   0  0  0  0  0  0  0  0  0  0  0  0
    7.0066    5.2076    0.0000 C   0  0  0  0  0  0  0  0  0  0  0  0
    5.5126    5.0731    0.0000 N   0  0  0  0  0  0  0  0  0  0  0  0
    4.6492    6.2997    0.0000 C   0  0  0  0  0  0  0  0  0  0  0  0
    5.2797    7.6607    0.0000 O   0  0  0  0  0  0  0  0  0  0  0  0
    3.1552    6.1652    0.0000 C   0  0  0  0  0  0  0  0  0  0  0  0
    3.0655    4.6679    0.0000 C   0  0  0  0  0  0  0  0  0  0  0  0
    2.5385    3.2636    0.0000 O   0  0  0  0  0  0  0  0  0  0  0  0
    1.6209    2.0770    0.0000 C   0  0  0  0  0  0  0  0  0  0  0  0
    0.3943    1.2135    0.0000 C   0  0  0  0  0  0  0  0  0  0  0  0
    1.2760    0.0000    0.0000 C   0  0  0  0  0  0  0  0  0  0  0  0
    0.3943   -1.2135    0.0000 N   0  0  0  0  0  0  0  0  0  0  0  0
   -1.0323   -0.7500    0.0000 N   0  0  0  0  0  0  0  0  0  0  0  0
   -1.0323    0.7500    0.0000 N   0  0  0  0  0  0  0  0  0  0  0  0
   -2.5321    0.7276    0.0000 C   0  0  0  0  0  0  0  0  0  0  0  0
   -3.9719    1.1482    0.0000 C   0  0  0  0  0  0  0  0  0  0  0  0
   -5.2238    1.9745    0.0000 C   0  0  0  0  0  0  0  0  0  0  0  0
   -6.1765    3.1332    0.0000 C   0  0  0  0  0  0  0  0  0  0  0  0
   -6.7453    4.5211    0.0000 C   0  0  0  0  0  0  0  0  0  0  0  0
   -8.2025    4.1655    0.0000 O   0  0  0  0  0  0  0  0  0  0  0  0
   -6.8798    6.0151    0.0000 N   0  0  0  0  0  0  0  0  0  0  0  0
   -6.5679    7.4823    0.0000 C   0  0  0  0  0  0  0  0  0  0  0  0
   -5.8374    8.7924    0.0000 C   0  0  0  0  0  0  0  0  0  0  0  0
   -7.0240    9.7100    0.0000 O   0  0  0  0  0  0  0  0  0  0  0  0
   -4.7532    9.8290    0.0000 N   0  0  0  0  0  0  0  0  0  0  0  0
   -5.8059   10.8976    0.0000 C   0  0  0  0  0  0  0  0  0  0  0  0
   -5.1150   12.2290    0.0000 C   0  0  0  0  0  0  0  0  0  0  0  0
   -3.6352   11.9832    0.0000 C   0  0  0  0  0  0  0  0  0  0  0  0
   -3.4117   10.5000    0.0000 C   0  0  0  0  0  0  0  0  0  0  0  0
   -1.9319   10.7457    0.0000 C   0  0  0  0  0  0  0  0  0  0  0  0
   -1.9544   12.2455    0.0000 O   0  0  0  0  0  0  0  0  0  0  0  0
   -0.4455   10.5444    0.0000 N   0  0  0  0  0  0  0  0  0  0  0  0
    0.9155    9.9138    0.0000 C   0  0  0  0  0  0  0  0  0  0  0  0
    1.7419   11.1657    0.0000 C   0  0  0  0  0  0  0  0  0  0  0  0
    1.0709   12.5073    0.0000 C   0  0  0  0  0  0  0  0  0  0  0  0
   -0.4264   12.5970    0.0000 C   0  0  0  0  0  0  0  0  0  0  0  0
   -1.0974   13.9385    0.0000 C   0  0  0  0  0  0  0  0  0  0  0  0
   -0.2710   15.1904    0.0000 C   0  0  0  0  0  0  0  0  0  0  0  0
    1.2263   15.1007    0.0000 C   0  0  0  0  0  0  0  0  0  0  0  0
    2.0526   16.3525    0.0000 C   0  0  0  0  0  0  0  0  0  0  0  0
    3.5500   16.2628    0.0000 C   0  0  0  0  0  0  0  0  0  0  0  0
    4.2209   14.9213    0.0000 C   0  0  0  0  0  0  0  0  0  0  0  0
    3.3946   13.6694    0.0000 C   0  0  0  0  0  0  0  0  0  0  0  0
    1.8973   13.7591    0.0000 C   0  0  0  0  0  0  0  0  0  0  0  0
    2.0303    8.9101    0.0000 C   0  0  0  0  0  0  0  0  0  0  0  0
    3.1889    9.8628    0.0000 O   0  0  0  0  0  0  0  0  0  0  0  0
    2.7996    7.6225    0.0000 N   0  0  0  0  0  0  0  0  0  0  0  0
    7.8700    3.9810    0.0000 C   0  0  0  0  0  0  0  0  0  0  0  0
    7.2395    2.6199    0.0000 C   0  0  0  0  0  0  0  0  0  0  0  0
    8.1029    1.3934    0.0000 C   0  0  0  0  0  0  0  0  0  0  0  0
    9.5969    1.5278    0.0000 C   0  0  0  0  0  0  0  0  0  0  0  0
   10.2274    2.8889    0.0000 C   0  0  0  0  0  0  0  0  0  0  0  0
    9.3640    4.1154    0.0000 C   0  0  0  0  0  0  0  0  0  0  0  0
  1  2  1  0
  2  3  2  0
  2  4  1  0
  4  5  1  6
  5  6  1  0
  6  7  2  0
  8  6  1  6
  8  9  1  0
  9 10  1  0
 10 11  1  0
 11 12  1  0
 12 13  2  0
 13 14  1  0
 14 15  2  0
 15 16  1  0
 16 17  1  0
 17 18  1  0
 18 19  1  0
 19 20  1  0
 20 21  1  0
 21 22  2  0
 21 23  1  0
 23 24  1  0
 24 25  1  0
 25 26  2  0
 25 27  1  0
 27 28  1  0
 28 29  1  0
 29 30  1  0
 31 30  1  1
 31 32  1  0
 32 33  2  0
 32 34  1  0
 34 35  1  0
 35 36  1  1
 36 37  1  0
 37 38  2  0
 38 39  1  0
 39 40  2  0
 40 41  1  0
 41 42  2  0
 42 43  1  0
 43 44  2  0
 44 45  1  0
 45 46  2  0
 35 47  1  0
 47 48  2  0
 47 49  1  0
  4 50  1  0
 50 51  1  0
 51 52  1  0
 52 53  1  0
 53 54  1  0
 54 55  1  0
 49  8  1  0
 55 50  1  0
 16 12  1  0
 31 27  1  0
 46 37  1  0
 46 41  1  0
M  END
>  <molecule_chembl_id>  (11) 
CHEMBL5086801

>  <canonical_smiles>  (11) 
NC(=O)[C@@H](NC(=O)[C@@H]1COCc2cnnn2CCCCC(=O)NCC(=O)N2CCC[C@H]2C(=O)N[C@@H](Cc2cccc3ccccc23)C(=O)N1)C1CCCCC1

>  <pchembl_value_mean>  (11) 
4.11

>  <inchi>  (11) 
InChI=1S/C39H51N9O7/c40-36(51)35(26-11-2-1-3-12-26)45-38(53)31-24-55-23-28-21-42-46-48(28)19-7-6-17-33(49)41-22-34(50)47-18-9-16-32(47)39(54)43-30(37(52)44-31)20-27-14-8-13-25-10-4-5-15-29(25)27/h4-5,8,10,13-15,21,26,30-32,35H,1-3,6-7,9,11-12,16-20,22-24H2,(H2,40,51)(H,41,49)(H,43,54)(H,44,52)(H,45,53)/t30-,31-,32-,35-/m0/s1

$$$$

     RDKit          2D

 57 61  0  0  0  0  0  0  0  0999 V2000
   10.2274    2.8889    0.0000 C   0  0  0  0  0  0  0  0  0  0  0  0
    9.3640    4.1154    0.0000 C   0  0  0  0  0  0  0  0  0  0  0  0
    9.9945    5.4765    0.0000 C   0  0  0  0  0  0  0  0  0  0  0  0
    7.8700    3.9810    0.0000 C   0  0  0  0  0  0  0  0  0  0  0  0
    7.0066    5.2076    0.0000 C   0  0  0  0  0  0  0  0  0  0  0  0
    5.5126    5.0731    0.0000 N   0  0  0  0  0  0  0  0  0  0  0  0
    4.6492    6.2997    0.0000 C   0  0  0  0  0  0  0  0  0  0  0  0
    5.2797    7.6607    0.0000 O   0  0  0  0  0  0  0  0  0  0  0  0
    3.1552    6.1652    0.0000 C   0  0  0  0  0  0  0  0  0  0  0  0
    3.0655    4.6679    0.0000 C   0  0  0  0  0  0  0  0  0  0  0  0
    2.5385    3.2636    0.0000 O   0  0  0  0  0  0  0  0  0  0  0  0
    1.6209    2.0770    0.0000 C   0  0  0  0  0  0  0  0  0  0  0  0
    0.3943    1.2135    0.0000 C   0  0  0  0  0  0  0  0  0  0  0  0
    1.2760    0.0000    0.0000 C   0  0  0  0  0  0  0  0  0  0  0  0
    0.3943   -1.2135    0.0000 N   0  0  0  0  0  0  0  0  0  0  0  0
   -1.0323   -0.7500    0.0000 N   0  0  0  0  0  0  0  0  0  0  0  0
   -1.0323    0.7500    0.0000 N   0  0  0  0  0  0  0  0  0  0  0  0
   -2.5321    0.7276    0.0000 C   0  0  0  0  0  0  0  0  0  0  0  0
   -3.9719    1.1482    0.0000 C   0  0  0  0  0  0  0  0  0  0  0  0
   -5.2238    1.9745    0.0000 C   0  0  0  0  0  0  0  0  0  0  0  0
   -6.1765    3.1332    0.0000 C   0  0  0  0  0  0  0  0  0  0  0  0
   -6.7453    4.5211    0.0000 C   0  0  0  0  0  0  0  0  0  0  0  0
   -8.2025    4.1655    0.0000 O   0  0  0  0  0  0  0  0  0  0  0  0
   -6.8798    6.0151    0.0000 N   0  0  0  0  0  0  0  0  0  0  0  0
   -6.5679    7.4823    0.0000 C   0  0  0  0  0  0  0  0  0  0  0  0
   -7.9722    8.0094    0.0000 C   0  0  0  0  0  0  0  0  0  0  0  0
   -9.1309    7.0567    0.0000 C   0  0  0  0  0  0  0  0  0  0  0  0
   -8.8851    5.5770    0.0000 O   0  0  0  0  0  0  0  0  0  0  0  0
  -10.5352    7.5838    0.0000 O   0  0  0  0  0  0  0  0  0  0  0  0
   -5.8374    8.7924    0.0000 C   0  0  0  0  0  0  0  0  0  0  0  0
   -7.0240    9.7100    0.0000 O   0  0  0  0  0  0  0  0  0  0  0  0
   -4.7532    9.8290    0.0000 N   0  0  0  0  0  0  0  0  0  0  0  0
   -5.8059   10.8976    0.0000 C   0  0  0  0  0  0  0  0  0  0  0  0
   -5.1150   12.2290    0.0000 C   0  0  0  0  0  0  0  0  0  0  0  0
   -3.6352   11.9832    0.0000 C   0  0  0  0  0  0  0  0  0  0  0  0
   -3.4117   10.5000    0.0000 C   0  0  0  0  0  0  0  0  0  0  0  0
   -1.9319   10.7457    0.0000 C   0  0  0  0  0  0  0  0  0  0  0  0
   -1.9544   12.2455    0.0000 O   0  0  0  0  0  0  0  0  0  0  0  0
   -0.4455   10.5444    0.0000 N   0  0  0  0  0  0  0  0  0  0  0  0
    0.9155    9.9138    0.0000 C   0  0  0  0  0  0  0  0  0  0  0  0
    1.7419   11.1657    0.0000 C   0  0  0  0  0  0  0  0  0  0  0  0
    1.0709   12.5073    0.0000 C   0  0  0  0  0  0  0  0  0  0  0  0
   -0.4264   12.5970    0.0000 C   0  0  0  0  0  0  0  0  0  0  0  0
   -1.0974   13.9385    0.0000 C   0  0  0  0  0  0  0  0  0  0  0  0
   -0.2710   15.1904    0.0000 C   0  0  0  0  0  0  0  0  0  0  0  0
    1.2263   15.1007    0.0000 C   0  0  0  0  0  0  0  0  0  0  0  0
    2.0526   16.3525    0.0000 C   0  0  0  0  0  0  0  0  0  0  0  0
    3.5500   16.2628    0.0000 C   0  0  0  0  0  0  0  0  0  0  0  0
    4.2209   14.9213    0.0000 C   0  0  0  0  0  0  0  0  0  0  0  0
    3.3946   13.6694    0.0000 C   0  0  0  0  0  0  0  0  0  0  0  0
    1.8973   13.7591    0.0000 C   0  0  0  0  0  0  0  0  0  0  0  0
    2.0303    8.9101    0.0000 C   0  0  0  0  0  0  0  0  0  0  0  0
    3.1889    9.8628    0.0000 O   0  0  0  0  0  0  0  0  0  0  0  0
    2.7996    7.6225    0.0000 N   0  0  0  0  0  0  0  0  0  0  0  0
    7.6371    6.5686    0.0000 C   0  0  0  0  0  0  0  0  0  0  0  0
    9.1311    6.7031    0.0000 N   0  0  0  0  0  0  0  0  0  0  0  0
    6.7737    7.7952    0.0000 O   0  0  0  0  0  0  0  0  0  0  0  0
  1  2  1  0
  2  3  1  0
  2  4  1  0
  5  4  1  6
  5  6  1  0
  6  7  1  0
  7  8  2  0
  9  7  1  6
  9 10  1  0
 10 11  1  0
 11 12  1  0
 12 13  1  0
 13 14  2  0
 14 15  1  0
 15 16  2  0
 16 17  1  0
 17 18  1  0
 18 19  1  0
 19 20  1  0
 20 21  1  0
 21 22  1  0
 22 23  2  0
 22 24  1  0
 24 25  1  0
 25 26  1  6
 26 27  1  0
 27 28  2  0
 27 29  1  0
 25 30  1  0
 30 31  2  0
 30 32  1  0
 32 33  1  0
 33 34  1  0
 34 35  1  0
 36 35  1  1
 36 37  1  0
 37 38  2  0
 37 39  1  0
 39 40  1  0
 40 41  1  1
 41 42  1  0
 42 43  2  0
 43 44  1  0
 44 45  2  0
 45 46  1  0
 46 47  2  0
 47 48  1  0
 48 49  2  0
 49 50  1  0
 50 51  2  0
 40 52  1  0
 52 53  2  0
 52 54  1  0
  5 55  1  0
 55 56  1  0
 55 57  2  0
 54  9  1  0
 17 13  1  0
 36 32  1  0
 51 42  1  0
 51 46  1  0
M  END
>  <molecule_chembl_id>  (12) 
CHEMBL5082252

>  <canonical_smiles>  (12) 
CC(C)C[C@H](NC(=O)[C@@H]1COCc2cnnn2CCCCC(=O)N[C@H](CC(=O)O)C(=O)N2CCC[C@H]2C(=O)N[C@@H](Cc2cccc3ccccc23)C(=O)N1)C(N)=O

>  <pchembl_value_mean>  (12) 
4.11

>  <inchi>  (12) 
InChI=1S/C39H51N9O9/c1-23(2)17-28(35(40)52)43-37(54)31-22-57-21-26-20-41-46-48(26)16-6-5-14-33(49)42-30(19-34(50)51)39(56)47-15-8-13-32(47)38(55)44-29(36(53)45-31)18-25-11-7-10-24-9-3-4-12-27(24)25/h3-4,7,9-12,20,23,28-32H,5-6,8,13-19,21-22H2,1-2H3,(H2,40,52)(H,42,49)(H,43,54)(H,44,55)(H,45,53)(H,50,51)/t28-,29-,30+,31-,32-/m0/s1

$$$$

     RDKit          2D

 57 61  0  0  0  0  0  0  0  0999 V2000
   10.2274    2.8889    0.0000 C   0  0  0  0  0  0  0  0  0  0  0  0
    9.3640    4.1154    0.0000 C   0  0  0  0  0  0  0  0  0  0  0  0
    9.9945    5.4765    0.0000 C   0  0  0  0  0  0  0  0  0  0  0  0
    7.8700    3.9810    0.0000 C   0  0  0  0  0  0  0  0  0  0  0  0
    7.0066    5.2076    0.0000 C   0  0  0  0  0  0  0  0  0  0  0  0
    5.5126    5.0731    0.0000 N   0  0  0  0  0  0  0  0  0  0  0  0
    4.6492    6.2997    0.0000 C   0  0  0  0  0  0  0  0  0  0  0  0
    5.2797    7.6607    0.0000 O   0  0  0  0  0  0  0  0  0  0  0  0
    3.1552    6.1652    0.0000 C   0  0  0  0  0  0  0  0  0  0  0  0
    3.0655    4.6679    0.0000 C   0  0  0  0  0  0  0  0  0  0  0  0
    2.5385    3.2636    0.0000 O   0  0  0  0  0  0  0  0  0  0  0  0
    1.6209    2.0770    0.0000 C   0  0  0  0  0  0  0  0  0  0  0  0
    0.3943    1.2135    0.0000 C   0  0  0  0  0  0  0  0  0  0  0  0
    1.2760    0.0000    0.0000 C   0  0  0  0  0  0  0  0  0  0  0  0
    0.3943   -1.2135    0.0000 N   0  0  0  0  0  0  0  0  0  0  0  0
   -1.0323   -0.7500    0.0000 N   0  0  0  0  0  0  0  0  0  0  0  0
   -1.0323    0.7500    0.0000 N   0  0  0  0  0  0  0  0  0  0  0  0
   -2.5321    0.7276    0.0000 C   0  0  0  0  0  0  0  0  0  0  0  0
   -3.9719    1.1482    0.0000 C   0  0  0  0  0  0  0  0  0  0  0  0
   -5.2238    1.9745    0.0000 C   0  0  0  0  0  0  0  0  0  0  0  0
   -6.1765    3.1332    0.0000 C   0  0  0  0  0  0  0  0  0  0  0  0
   -6.7453    4.5211    0.0000 C   0  0  0  0  0  0  0  0  0  0  0  0
   -8.2025    4.1655    0.0000 O   0  0  0  0  0  0  0  0  0  0  0  0
   -6.8798    6.0151    0.0000 N   0  0  0  0  0  0  0  0  0  0  0  0
   -6.5679    7.4823    0.0000 C   0  0  0  0  0  0  0  0  0  0  0  0
   -7.9722    8.0094    0.0000 C   0  0  0  0  0  0  0  0  0  0  0  0
   -9.1309    7.0567    0.0000 C   0  0  0  0  0  0  0  0  0  0  0  0
   -8.8851    5.5770    0.0000 O   0  0  0  0  0  0  0  0  0  0  0  0
  -10.5352    7.5838    0.0000 O   0  0  0  0  0  0  0  0  0  0  0  0
   -5.8374    8.7924    0.0000 C   0  0  0  0  0  0  0  0  0  0  0  0
   -7.0240    9.7100    0.0000 O   0  0  0  0  0  0  0  0  0  0  0  0
   -4.7532    9.8290    0.0000 N   0  0  0  0  0  0  0  0  0  0  0  0
   -5.8059   10.8976    0.0000 C   0  0  0  0  0  0  0  0  0  0  0  0
   -5.1150   12.2290    0.0000 C   0  0  0  0  0  0  0  0  0  0  0  0
   -3.6352   11.9832    0.0000 C   0  0  0  0  0  0  0  0  0  0  0  0
   -3.4117   10.5000    0.0000 C   0  0  0  0  0  0  0  0  0  0  0  0
   -1.9319   10.7457    0.0000 C   0  0  0  0  0  0  0  0  0  0  0  0
   -1.9544   12.2455    0.0000 O   0  0  0  0  0  0  0  0  0  0  0  0
   -0.4455   10.5444    0.0000 N   0  0  0  0  0  0  0  0  0  0  0  0
    0.9155    9.9138    0.0000 C   0  0  0  0  0  0  0  0  0  0  0  0
    1.7419   11.1657    0.0000 C   0  0  0  0  0  0  0  0  0  0  0  0
    1.0709   12.5073    0.0000 C   0  0  0  0  0  0  0  0  0  0  0  0
   -0.4264   12.5970    0.0000 C   0  0  0  0  0  0  0  0  0  0  0  0
   -1.0974   13.9385    0.0000 C   0  0  0  0  0  0  0  0  0  0  0  0
   -0.2710   15.1904    0.0000 C   0  0  0  0  0  0  0  0  0  0  0  0
    1.2263   15.1007    0.0000 C   0  0  0  0  0  0  0  0  0  0  0  0
    2.0526   16.3525    0.0000 C   0  0  0  0  0  0  0  0  0  0  0  0
    3.5500   16.2628    0.0000 C   0  0  0  0  0  0  0  0  0  0  0  0
    4.2209   14.9213    0.0000 C   0  0  0  0  0  0  0  0  0  0  0  0
    3.3946   13.6694    0.0000 C   0  0  0  0  0  0  0  0  0  0  0  0
    1.8973   13.7591    0.0000 C   0  0  0  0  0  0  0  0  0  0  0  0
    2.0303    8.9101    0.0000 C   0  0  0  0  0  0  0  0  0  0  0  0
    3.1889    9.8628    0.0000 O   0  0  0  0  0  0  0  0  0  0  0  0
    2.7996    7.6225    0.0000 N   0  0  0  0  0  0  0  0  0  0  0  0
    7.6371    6.5686    0.0000 C   0  0  0  0  0  0  0  0  0  0  0  0
    9.1311    6.7031    0.0000 N   0  0  0  0  0  0  0  0  0  0  0  0
    6.7737    7.7952    0.0000 O   0  0  0  0  0  0  0  0  0  0  0  0
  1  2  1  0
  2  3  1  0
  2  4  1  0
  5  4  1  6
  5  6  1  0
  6  7  1  0
  7  8  2  0
  9  7  1  6
  9 10  1  0
 10 11  1  0
 11 12  1  0
 12 13  1  0
 13 14  2  0
 14 15  1  0
 15 16  2  0
 16 17  1  0
 17 18  1  0
 18 19  1  0
 19 20  1  0
 20 21  1  0
 21 22  1  0
 22 23  2  0
 22 24  1  0
 24 25  1  0
 25 26  1  1
 26 27  1  0
 27 28  2  0
 27 29  1  0
 25 30  1  0
 30 31  2  0
 30 32  1  0
 32 33  1  0
 33 34  1  0
 34 35  1  0
 36 35  1  1
 36 37  1  0
 37 38  2  0
 37 39  1  0
 39 40  1  0
 40 41  1  1
 41 42  1  0
 42 43  2  0
 43 44  1  0
 44 45  2  0
 45 46  1  0
 46 47  2  0
 47 48  1  0
 48 49  2  0
 49 50  1  0
 50 51  2  0
 40 52  1  0
 52 53  2  0
 52 54  1  0
  5 55  1  0
 55 56  1  0
 55 57  2  0
 54  9  1  0
 17 13  1  0
 36 32  1  0
 51 42  1  0
 51 46  1  0
M  END
>  <molecule_chembl_id>  (13) 
CHEMBL5082880

>  <canonical_smiles>  (13) 
CC(C)C[C@H](NC(=O)[C@@H]1COCc2cnnn2CCCCC(=O)N[C@@H](CC(=O)O)C(=O)N2CCC[C@H]2C(=O)N[C@@H](Cc2cccc3ccccc23)C(=O)N1)C(N)=O

>  <pchembl_value_mean>  (13) 
4.18

>  <inchi>  (13) 
InChI=1S/C39H51N9O9/c1-23(2)17-28(35(40)52)43-37(54)31-22-57-21-26-20-41-46-48(26)16-6-5-14-33(49)42-30(19-34(50)51)39(56)47-15-8-13-32(47)38(55)44-29(36(53)45-31)18-25-11-7-10-24-9-3-4-12-27(24)25/h3-4,7,9-12,20,23,28-32H,5-6,8,13-19,21-22H2,1-2H3,(H2,40,52)(H,42,49)(H,43,54)(H,44,55)(H,45,53)(H,50,51)/t28-,29-,30-,31-,32-/m0/s1

$$$$

     RDKit          2D

 51 55  0  0  0  0  0  0  0  0999 V2000
   10.1942    4.0864    0.0000 C   0  0  0  0  0  0  0  0  0  0  0  0
    8.9710    3.2181    0.0000 C   0  0  0  0  0  0  0  0  0  0  0  0
    9.1114    1.7247    0.0000 C   0  0  0  0  0  0  0  0  0  0  0  0
    7.6075    3.8433    0.0000 C   0  0  0  0  0  0  0  0  0  0  0  0
    6.3843    2.9751    0.0000 C   0  0  0  0  0  0  0  0  0  0  0  0
    5.0208    3.6002    0.0000 N   0  0  0  0  0  0  0  0  0  0  0  0
    3.7977    2.7320    0.0000 C   0  0  0  0  0  0  0  0  0  0  0  0
    3.9380    1.2386    0.0000 O   0  0  0  0  0  0  0  0  0  0  0  0
    2.4342    3.3572    0.0000 C   0  0  0  0  0  0  0  0  0  0  0  0
    1.5931    2.1151    0.0000 C   0  0  0  0  0  0  0  0  0  0  0  0
    0.3943    1.2135    0.0000 C   0  0  0  0  0  0  0  0  0  0  0  0
    1.2760    0.0000    0.0000 C   0  0  0  0  0  0  0  0  0  0  0  0
    0.3943   -1.2135    0.0000 N   0  0  0  0  0  0  0  0  0  0  0  0
   -1.0323   -0.7500    0.0000 N   0  0  0  0  0  0  0  0  0  0  0  0
   -1.0323    0.7500    0.0000 N   0  0  0  0  0  0  0  0  0  0  0  0
   -2.5321    0.7748    0.0000 C   0  0  0  0  0  0  0  0  0  0  0  0
   -3.9426    1.2852    0.0000 C   0  0  0  0  0  0  0  0  0  0  0  0
   -5.1109    2.2260    0.0000 C   0  0  0  0  0  0  0  0  0  0  0  0
   -5.9104    3.4951    0.0000 C   0  0  0  0  0  0  0  0  0  0  0  0
   -6.2546    4.9551    0.0000 C   0  0  0  0  0  0  0  0  0  0  0  0
   -7.7513    4.8560    0.0000 O   0  0  0  0  0  0  0  0  0  0  0  0
   -6.1060    6.4478    0.0000 N   0  0  0  0  0  0  0  0  0  0  0  0
   -5.4808    7.8113    0.0000 C   0  0  0  0  0  0  0  0  0  0  0  0
   -4.4468    8.8979    0.0000 C   0  0  0  0  0  0  0  0  0  0  0  0
   -5.3484   10.0967    0.0000 O   0  0  0  0  0  0  0  0  0  0  0  0
   -3.1160    9.5899    0.0000 N   0  0  0  0  0  0  0  0  0  0  0  0
   -3.7859   10.9320    0.0000 C   0  0  0  0  0  0  0  0  0  0  0  0
   -2.7165   11.9839    0.0000 C   0  0  0  0  0  0  0  0  0  0  0  0
   -1.3856   11.2919    0.0000 C   0  0  0  0  0  0  0  0  0  0  0  0
   -1.6325    9.8123    0.0000 C   0  0  0  0  0  0  0  0  0  0  0  0
   -0.1573    9.5410    0.0000 C   0  0  0  0  0  0  0  0  0  0  0  0
    0.3532   10.9515    0.0000 O   0  0  0  0  0  0  0  0  0  0  0  0
    1.1500    8.8054    0.0000 N   0  0  0  0  0  0  0  0  0  0  0  0
    2.1475    7.6851    0.0000 C   0  0  0  0  0  0  0  0  0  0  0  0
    3.4166    8.4847    0.0000 C   0  0  0  0  0  0  0  0  0  0  0  0
    3.3588    9.9836    0.0000 C   0  0  0  0  0  0  0  0  0  0  0  0
    2.0318   10.6829    0.0000 C   0  0  0  0  0  0  0  0  0  0  0  0
    1.9739   12.1818    0.0000 C   0  0  0  0  0  0  0  0  0  0  0  0
    3.2431   12.9813    0.0000 C   0  0  0  0  0  0  0  0  0  0  0  0
    4.5701   12.2820    0.0000 C   0  0  0  0  0  0  0  0  0  0  0  0
    5.8392   13.0815    0.0000 C   0  0  0  0  0  0  0  0  0  0  0  0
    7.1662   12.3822    0.0000 C   0  0  0  0  0  0  0  0  0  0  0  0
    7.2241   10.8833    0.0000 C   0  0  0  0  0  0  0  0  0  0  0  0
    5.9549   10.0838    0.0000 C   0  0  0  0  0  0  0  0  0  0  0  0
    4.6279   10.7831    0.0000 C   0  0  0  0  0  0  0  0  0  0  0  0
    2.7272    6.3017    0.0000 C   0  0  0  0  0  0  0  0  0  0  0  0
    4.1872    6.6458    0.0000 O   0  0  0  0  0  0  0  0  0  0  0  0
    2.8264    4.8050    0.0000 N   0  0  0  0  0  0  0  0  0  0  0  0
    6.5247    1.4816    0.0000 C   0  0  0  0  0  0  0  0  0  0  0  0
    7.8882    0.8565    0.0000 N   0  0  0  0  0  0  0  0  0  0  0  0
    5.3015    0.6134    0.0000 O   0  0  0  0  0  0  0  0  0  0  0  0
  1  2  1  0
  2  3  1  0
  2  4  1  0
  5  4  1  1
  5  6  1  0
  6  7  1  0
  7  8  2  0
  9  7  1  1
  9 10  1  0
 10 11  1  0
 11 12  2  0
 12 13  1  0
 13 14  2  0
 14 15  1  0
 15 16  1  0
 16 17  1  0
 17 18  1  0
 18 19  1  0
 19 20  1  0
 20 21  2  0
 20 22  1  0
 22 23  1  0
 23 24  1  0
 24 25  2  0
 24 26  1  0
 26 27  1  0
 27 28  1  0
 28 29  1  0
 30 29  1  1
 30 31  1  0
 31 32  2  0
 31 33  1  0
 33 34  1  0
 34 35  1  1
 35 36  1  0
 36 37  2  0
 37 38  1  0
 38 39  2  0
 39 40  1  0
 40 41  2  0
 41 42  1  0
 42 43  2  0
 43 44  1  0
 44 45  2  0
 34 46  1  0
 46 47  2  0
 46 48  1  0
  5 49  1  0
 49 50  1  0
 49 51  2  0
 48  9  1  0
 15 11  1  0
 30 26  1  0
 45 36  1  0
 45 40  1  0
M  END
>  <molecule_chembl_id>  (14) 
CHEMBL5076432

>  <canonical_smiles>  (14) 
CC(C)C[C@H](NC(=O)[C@H]1Cc2cnnn2CCCCC(=O)NCC(=O)N2CCC[C@H]2C(=O)N[C@@H](Cc2cccc3ccccc23)C(=O)N1)C(N)=O

>  <pchembl_value_mean>  (14) 
4.19

>  <inchi>  (14) 
InChI=1S/C36H47N9O6/c1-22(2)17-27(33(37)48)40-35(50)29-19-25-20-39-43-45(25)16-6-5-14-31(46)38-21-32(47)44-15-8-13-30(44)36(51)42-28(34(49)41-29)18-24-11-7-10-23-9-3-4-12-26(23)24/h3-4,7,9-12,20,22,27-30H,5-6,8,13-19,21H2,1-2H3,(H2,37,48)(H,38,46)(H,40,50)(H,41,49)(H,42,51)/t27-,28-,29+,30-/m0/s1

$$$$

     RDKit          2D

 46 48  0  0  0  0  0  0  0  0999 V2000
   10.2274    2.8889    0.0000 C   0  0  0  0  0  0  0  0  0  0  0  0
    9.3640    4.1154    0.0000 C   0  0  0  0  0  0  0  0  0  0  0  0
    9.9945    5.4765    0.0000 C   0  0  0  0  0  0  0  0  0  0  0  0
    7.8700    3.9810    0.0000 C   0  0  0  0  0  0  0  0  0  0  0  0
    7.0066    5.2076    0.0000 C   0  0  0  0  0  0  0  0  0  0  0  0
    5.5126    5.0731    0.0000 N   0  0  0  0  0  0  0  0  0  0  0  0
    4.6492    6.2997    0.0000 C   0  0  0  0  0  0  0  0  0  0  0  0
    5.2797    7.6607    0.0000 O   0  0  0  0  0  0  0  0  0  0  0  0
    3.1552    6.1652    0.0000 C   0  0  0  0  0  0  0  0  0  0  0  0
    3.0655    4.6679    0.0000 C   0  0  0  0  0  0  0  0  0  0  0  0
    2.5385    3.2636    0.0000 O   0  0  0  0  0  0  0  0  0  0  0  0
    1.6209    2.0770    0.0000 C   0  0  0  0  0  0  0  0  0  0  0  0
    0.3943    1.2135    0.0000 C   0  0  0  0  0  0  0  0  0  0  0  0
    1.2760    0.0000    0.0000 C   0  0  0  0  0  0  0  0  0  0  0  0
    0.3943   -1.2135    0.0000 N   0  0  0  0  0  0  0  0  0  0  0  0
   -1.0323   -0.7500    0.0000 N   0  0  0  0  0  0  0  0  0  0  0  0
   -1.0323    0.7500    0.0000 N   0  0  0  0  0  0  0  0  0  0  0  0
   -2.5321    0.7276    0.0000 C   0  0  0  0  0  0  0  0  0  0  0  0
   -3.9719    1.1482    0.0000 C   0  0  0  0  0  0  0  0  0  0  0  0
   -5.2238    1.9745    0.0000 C   0  0  0  0  0  0  0  0  0  0  0  0
   -6.1765    3.1332    0.0000 C   0  0  0  0  0  0  0  0  0  0  0  0
   -6.7453    4.5211    0.0000 C   0  0  0  0  0  0  0  0  0  0  0  0
   -8.2025    4.1655    0.0000 O   0  0  0  0  0  0  0  0  0  0  0  0
   -6.8798    6.0151    0.0000 N   0  0  0  0  0  0  0  0  0  0  0  0
   -6.5679    7.4823    0.0000 C   0  0  0  0  0  0  0  0  0  0  0  0
   -5.8374    8.7924    0.0000 C   0  0  0  0  0  0  0  0  0  0  0  0
   -7.0240    9.7100    0.0000 O   0  0  0  0  0  0  0  0  0  0  0  0
   -4.7532    9.8290    0.0000 N   0  0  0  0  0  0  0  0  0  0  0  0
   -5.8059   10.8976    0.0000 C   0  0  0  0  0  0  0  0  0  0  0  0
   -5.1150   12.2290    0.0000 C   0  0  0  0  0  0  0  0  0  0  0  0
   -3.6352   11.9832    0.0000 C   0  0  0  0  0  0  0  0  0  0  0  0
   -3.4117   10.5000    0.0000 C   0  0  0  0  0  0  0  0  0  0  0  0
   -1.9319   10.7457    0.0000 C   0  0  0  0  0  0  0  0  0  0  0  0
   -1.9544   12.2455    0.0000 O   0  0  0  0  0  0  0  0  0  0  0  0
   -0.4455   10.5444    0.0000 N   0  0  0  0  0  0  0  0  0  0  0  0
    0.9155    9.9138    0.0000 C   0  0  0  0  0  0  0  0  0  0  0  0
    1.7419   11.1657    0.0000 C   0  0  0  0  0  0  0  0  0  0  0  0
    1.0709   12.5073    0.0000 C   0  0  0  0  0  0  0  0  0  0  0  0
    1.8973   13.7591    0.0000 C   0  0  0  0  0  0  0  0  0  0  0  0
   -0.4264   12.5970    0.0000 C   0  0  0  0  0  0  0  0  0  0  0  0
    2.0303    8.9101    0.0000 C   0  0  0  0  0  0  0  0  0  0  0  0
    3.1889    9.8628    0.0000 O   0  0  0  0  0  0  0  0  0  0  0  0
    2.7996    7.6225    0.0000 N   0  0  0  0  0  0  0  0  0  0  0  0
    7.6371    6.5686    0.0000 C   0  0  0  0  0  0  0  0  0  0  0  0
    9.1311    6.7031    0.0000 N   0  0  0  0  0  0  0  0  0  0  0  0
    6.7737    7.7952    0.0000 O   0  0  0  0  0  0  0  0  0  0  0  0
  1  2  1  0
  2  3  1  0
  2  4  1  0
  5  4  1  6
  5  6  1  0
  6  7  1  0
  7  8  2  0
  9  7  1  6
  9 10  1  0
 10 11  1  0
 11 12  1  0
 12 13  1  0
 13 14  2  0
 14 15  1  0
 15 16  2  0
 16 17  1  0
 17 18  1  0
 18 19  1  0
 19 20  1  0
 20 21  1  0
 21 22  1  0
 22 23  2  0
 22 24  1  0
 24 25  1  0
 25 26  1  0
 26 27  2  0
 26 28  1  0
 28 29  1  0
 29 30  1  0
 30 31  1  0
 32 31  1  1
 32 33  1  0
 33 34  2  0
 33 35  1  0
 35 36  1  0
 36 37  1  1
 37 38  1  0
 38 39  1  0
 38 40  1  0
 36 41  1  0
 41 42  2  0
 41 43  1  0
  5 44  1  0
 44 45  1  0
 44 46  2  0
 43  9  1  0
 17 13  1  0
 32 28  1  0
M  END
>  <molecule_chembl_id>  (15) 
CHEMBL5087475

>  <canonical_smiles>  (15) 
CC(C)C[C@H](NC(=O)[C@@H]1COCc2cnnn2CCCCC(=O)NCC(=O)N2CCC[C@H]2C(=O)N[C@@H](CC(C)C)C(=O)N1)C(N)=O

>  <pchembl_value_mean>  (15) 
4.22

>  <inchi>  (15) 
InChI=1S/C30H49N9O7/c1-18(2)12-21(27(31)42)34-29(44)23-17-46-16-20-14-33-37-39(20)11-6-5-9-25(40)32-15-26(41)38-10-7-8-24(38)30(45)35-22(13-19(3)4)28(43)36-23/h14,18-19,21-24H,5-13,15-17H2,1-4H3,(H2,31,42)(H,32,40)(H,34,44)(H,35,45)(H,36,43)/t21-,22-,23-,24-/m0/s1

$$$$

     RDKit          2D

 55 59  0  0  0  0  0  0  0  0999 V2000
   -6.0857   16.2266    0.0000 C   0  0  0  0  0  0  0  0  0  0  0  0
   -6.1978   14.7308    0.0000 C   0  0  0  0  0  0  0  0  0  0  0  0
   -7.5493   14.0799    0.0000 C   0  0  0  0  0  0  0  0  0  0  0  0
   -4.9585   13.8858    0.0000 C   0  0  0  0  0  0  0  0  0  0  0  0
   -5.0706   12.3900    0.0000 C   0  0  0  0  0  0  0  0  0  0  0  0
   -3.8312   11.5450    0.0000 N   0  0  0  0  0  0  0  0  0  0  0  0
   -3.9433   10.0492    0.0000 C   0  0  0  0  0  0  0  0  0  0  0  0
   -5.2948    9.3984    0.0000 O   0  0  0  0  0  0  0  0  0  0  0  0
   -2.7039    9.2042    0.0000 C   0  0  0  0  0  0  0  0  0  0  0  0
   -1.6837   10.3038    0.0000 C   0  0  0  0  0  0  0  0  0  0  0  0
   -0.3846   11.0538    0.0000 O   0  0  0  0  0  0  0  0  0  0  0  0
    1.0777   11.3876    0.0000 C   0  0  0  0  0  0  0  0  0  0  0  0
    2.5736   11.2755    0.0000 C   0  0  0  0  0  0  0  0  0  0  0  0
    2.6633   12.7728    0.0000 C   0  0  0  0  0  0  0  0  0  0  0  0
    4.1150   13.1502    0.0000 N   0  0  0  0  0  0  0  0  0  0  0  0
    4.9225   11.8861    0.0000 N   0  0  0  0  0  0  0  0  0  0  0  0
    3.9699   10.7275    0.0000 N   0  0  0  0  0  0  0  0  0  0  0  0
    5.1426    9.7922    0.0000 C   0  0  0  0  0  0  0  0  0  0  0  0
    5.9876    8.5529    0.0000 C   0  0  0  0  0  0  0  0  0  0  0  0
    6.4297    7.1195    0.0000 C   0  0  0  0  0  0  0  0  0  0  0  0
    6.4297    5.6195    0.0000 C   0  0  0  0  0  0  0  0  0  0  0  0
    5.9876    4.1862    0.0000 C   0  0  0  0  0  0  0  0  0  0  0  0
    7.3390    3.5353    0.0000 O   0  0  0  0  0  0  0  0  0  0  0  0
    5.1426    2.9468    0.0000 N   0  0  0  0  0  0  0  0  0  0  0  0
    3.9699    2.0116    0.0000 C   0  0  0  0  0  0  0  0  0  0  0  0
    2.5736    1.4635    0.0000 C   0  0  0  0  0  0  0  0  0  0  0  0
    2.9073    0.0012    0.0000 O   0  0  0  0  0  0  0  0  0  0  0  0
    1.0777    1.3515    0.0000 N   0  0  0  0  0  0  0  0  0  0  0  0
    1.7286    0.0000    0.0000 C   0  0  0  0  0  0  0  0  0  0  0  0
    1.0777   -1.3515    0.0000 C   0  0  0  0  0  0  0  0  0  0  0  0
   -0.3846   -1.6852    0.0000 C   0  0  0  0  0  0  0  0  0  0  0  0
   -1.5574   -0.7500    0.0000 C   0  0  0  0  0  0  0  0  0  0  0  0
   -1.5574    0.7500    0.0000 C   0  0  0  0  0  0  0  0  0  0  0  0
   -0.3846    1.6852    0.0000 C   0  0  0  0  0  0  0  0  0  0  0  0
   -1.6837    2.4352    0.0000 C   0  0  0  0  0  0  0  0  0  0  0  0
   -2.6189    1.2625    0.0000 O   0  0  0  0  0  0  0  0  0  0  0  0
   -2.7039    3.5348    0.0000 N   0  0  0  0  0  0  0  0  0  0  0  0
   -3.3548    4.8863    0.0000 C   0  0  0  0  0  0  0  0  0  0  0  0
   -4.7881    4.4441    0.0000 C   0  0  0  0  0  0  0  0  0  0  0  0
   -5.1219    2.9817    0.0000 C   0  0  0  0  0  0  0  0  0  0  0  0
   -4.0223    1.9615    0.0000 C   0  0  0  0  0  0  0  0  0  0  0  0
   -4.3561    0.4991    0.0000 C   0  0  0  0  0  0  0  0  0  0  0  0
   -5.7895    0.0570    0.0000 C   0  0  0  0  0  0  0  0  0  0  0  0
   -6.8890    1.0772    0.0000 C   0  0  0  0  0  0  0  0  0  0  0  0
   -8.3224    0.6351    0.0000 C   0  0  0  0  0  0  0  0  0  0  0  0
   -9.4220    1.6553    0.0000 C   0  0  0  0  0  0  0  0  0  0  0  0
   -9.0882    3.1177    0.0000 C   0  0  0  0  0  0  0  0  0  0  0  0
   -7.6548    3.5599    0.0000 C   0  0  0  0  0  0  0  0  0  0  0  0
   -6.5553    2.5396    0.0000 C   0  0  0  0  0  0  0  0  0  0  0  0
   -3.5783    6.3695    0.0000 C   0  0  0  0  0  0  0  0  0  0  0  0
   -5.0783    6.3695    0.0000 O   0  0  0  0  0  0  0  0  0  0  0  0
   -3.3548    7.8528    0.0000 N   0  0  0  0  0  0  0  0  0  0  0  0
   -6.4220   11.7392    0.0000 C   0  0  0  0  0  0  0  0  0  0  0  0
   -7.6614   12.5841    0.0000 N   0  0  0  0  0  0  0  0  0  0  0  0
   -6.5341   10.2433    0.0000 O   0  0  0  0  0  0  0  0  0  0  0  0
  1  2  1  0
  2  3  1  0
  2  4  1  0
  5  4  1  6
  5  6  1  0
  6  7  1  0
  7  8  2  0
  9  7  1  6
  9 10  1  0
 10 11  1  0
 11 12  1  0
 12 13  1  0
 13 14  2  0
 14 15  1  0
 15 16  2  0
 16 17  1  0
 17 18  1  0
 18 19  1  0
 19 20  1  0
 20 21  1  0
 21 22  1  0
 22 23  2  0
 22 24  1  0
 24 25  1  0
 25 26  1  0
 26 27  2  0
 26 28  1  0
 28 29  1  0
 29 30  1  0
 30 31  1  0
 31 32  1  0
 32 33  1  0
 34 33  1  1
 34 35  1  0
 35 36  2  0
 35 37  1  0
 37 38  1  0
 38 39  1  1
 39 40  1  0
 40 41  2  0
 41 42  1  0
 42 43  2  0
 43 44  1  0
 44 45  2  0
 45 46  1  0
 46 47  2  0
 47 48  1  0
 48 49  2  0
 38 50  1  0
 50 51  2  0
 50 52  1  0
  5 53  1  0
 53 54  1  0
 53 55  2  0
 52  9  1  0
 17 13  1  0
 34 28  1  0
 49 40  1  0
 49 44  1  0
M  END
>  <molecule_chembl_id>  (16) 
CHEMBL5081764

>  <canonical_smiles>  (16) 
CC(C)C[C@H](NC(=O)[C@@H]1COCc2cnnn2CCCCC(=O)NCC(=O)N2CCCCC[C@H]2C(=O)N[C@@H](Cc2cccc3ccccc23)C(=O)N1)C(N)=O

>  <pchembl_value_mean>  (16) 
4.26

>  <inchi>  (16) 
InChI=1S/C39H53N9O7/c1-25(2)19-30(36(40)51)43-38(53)32-24-55-23-28-21-42-46-48(28)18-9-7-16-34(49)41-22-35(50)47-17-8-3-4-15-33(47)39(54)44-31(37(52)45-32)20-27-13-10-12-26-11-5-6-14-29(26)27/h5-6,10-14,21,25,30-33H,3-4,7-9,15-20,22-24H2,1-2H3,(H2,40,51)(H,41,49)(H,43,53)(H,44,54)(H,45,52)/t30-,31-,32-,33-/m0/s1

$$$$

     RDKit          2D

 22 23  0  0  0  0  0  0  0  0999 V2000
    3.7500   -1.2990    0.0000 C   0  0  0  0  0  0  0  0  0  0  0  0
    3.0000    0.0000    0.0000 O   0  0  0  0  0  0  0  0  0  0  0  0
    1.5000    0.0000    0.0000 C   0  0  0  0  0  0  0  0  0  0  0  0
    0.7500   -1.2990    0.0000 C   0  0  0  0  0  0  0  0  0  0  0  0
   -0.7500   -1.2990    0.0000 C   0  0  0  0  0  0  0  0  0  0  0  0
   -1.5000   -2.5981    0.0000 C   0  0  0  0  0  0  0  0  0  0  0  0
   -3.0000   -2.5981    0.0000 C   0  0  0  0  0  0  0  0  0  0  0  0
   -3.7500   -3.8971    0.0000 C   0  0  0  0  0  0  0  0  0  0  0  0
   -3.0000   -5.1962    0.0000 O   0  0  0  0  0  0  0  0  0  0  0  0
   -5.2500   -3.8971    0.0000 C   0  0  0  0  0  0  0  0  0  0  0  0
   -6.0000   -2.5981    0.0000 C   0  0  0  0  0  0  0  0  0  0  0  0
   -7.5000   -2.5981    0.0000 C   0  0  0  0  0  0  0  0  0  0  0  0
   -8.2500   -3.8971    0.0000 C   0  0  0  0  0  0  0  0  0  0  0  0
   -7.5000   -5.1962    0.0000 C   0  0  0  0  0  0  0  0  0  0  0  0
   -6.0000   -5.1962    0.0000 N   0  0  0  0  0  0  0  0  0  0  0  0
   -1.5000    0.0000    0.0000 C   0  0  0  0  0  0  0  0  0  0  0  0
   -0.7500    1.2990    0.0000 C   0  0  0  0  0  0  0  0  0  0  0  0
   -1.5000    2.5981    0.0000 O   0  0  0  0  0  0  0  0  0  0  0  0
   -0.7500    3.8971    0.0000 C   0  0  0  0  0  0  0  0  0  0  0  0
    0.7500    1.2990    0.0000 C   0  0  0  0  0  0  0  0  0  0  0  0
    1.5000    2.5981    0.0000 O   0  0  0  0  0  0  0  0  0  0  0  0
    3.0000    2.5981    0.0000 C   0  0  0  0  0  0  0  0  0  0  0  0
  1  2  1  0
  2  3  1  0
  3  4  2  0
  4  5  1  0
  5  6  1  0
  6  7  2  0
  7  8  1  0
  8  9  2  0
  8 10  1  0
 10 11  2  0
 11 12  1  0
 12 13  2  0
 13 14  1  0
 14 15  2  0
  5 16  2  0
 16 17  1  0
 17 18  1  0
 18 19  1  0
 17 20  2  0
 20 21  1  0
 21 22  1  0
 20  3  1  0
 15 10  1  0
M  END
>  <molecule_chembl_id>  (17) 
CHEMBL3219765

>  <canonical_smiles>  (17) 
COc1cc(/C=C/C(=O)c2ccccn2)cc(OC)c1OC

>  <pchembl_value_mean>  (17) 
4.28

>  <inchi>  (17) 
InChI=1S/C17H17NO4/c1-20-15-10-12(11-16(21-2)17(15)22-3)7-8-14(19)13-6-4-5-9-18-13/h4-11H,1-3H3/b8-7+

$$$$

     RDKit          2D

 27 29  0  0  0  0  0  0  0  0999 V2000
    3.3107   -8.3323    0.0000 C   0  0  0  0  0  0  0  0  0  0  0  0
    2.5607   -7.0333    0.0000 C   0  0  0  0  0  0  0  0  0  0  0  0
    3.3107   -5.7342    0.0000 C   0  0  0  0  0  0  0  0  0  0  0  0
    4.8107   -5.7342    0.0000 O   0  0  0  0  0  0  0  0  0  0  0  0
    2.5607   -4.4352    0.0000 N   0  0  0  0  0  0  0  0  0  0  0  0
    1.1118   -4.0470    0.0000 C   0  0  0  0  0  0  0  0  0  0  0  0
    1.5000   -2.5981    0.0000 C   0  0  0  0  0  0  0  0  0  0  0  0
    0.7500   -1.2990    0.0000 N   0  0  0  0  0  0  0  0  0  0  0  0
    1.5000    0.0000    0.0000 C   0  0  0  0  0  0  0  0  0  0  0  0
    0.7500    1.2990    0.0000 C   0  0  0  0  0  0  0  0  0  0  0  0
   -0.7500    1.2990    0.0000 N   0  0  0  0  0  0  0  0  0  0  0  0
   -1.5000    2.5981    0.0000 C   0  0  0  0  0  0  0  0  0  0  0  0
   -3.0000    2.5981    0.0000 O   0  0  0  0  0  0  0  0  0  0  0  0
   -0.7500    3.8971    0.0000 C   0  0  0  0  0  0  0  0  0  0  0  0
   -1.5000    5.1962    0.0000 N   0  0  0  0  0  0  0  0  0  0  0  0
   -0.7500    6.4952    0.0000 C   0  0  0  0  0  0  0  0  0  0  0  0
    0.7500    6.4952    0.0000 C   0  0  0  0  0  0  0  0  0  0  0  0
    1.5000    7.7942    0.0000 C   0  0  0  0  0  0  0  0  0  0  0  0
    3.0000    7.7942    0.0000 Cl  0  0  0  0  0  0  0  0  0  0  0  0
    0.7500    9.0933    0.0000 C   0  0  0  0  0  0  0  0  0  0  0  0
    1.5000   10.3923    0.0000 Cl  0  0  0  0  0  0  0  0  0  0  0  0
   -0.7500    9.0933    0.0000 C   0  0  0  0  0  0  0  0  0  0  0  0
   -1.5000    7.7942    0.0000 C   0  0  0  0  0  0  0  0  0  0  0  0
   -3.0000    7.7942    0.0000 O   0  0  0  0  0  0  0  0  0  0  0  0
   -1.5000    0.0000    0.0000 C   0  0  0  0  0  0  0  0  0  0  0  0
   -0.7500   -1.2990    0.0000 C   0  0  0  0  0  0  0  0  0  0  0  0
    2.9489   -2.9863    0.0000 C   0  0  0  0  0  0  0  0  0  0  0  0
  1  2  2  0
  2  3  1  0
  3  4  2  0
  3  5  1  0
  5  6  1  0
  6  7  1  0
  7  8  1  0
  8  9  1  0
  9 10  1  0
 10 11  1  0
 11 12  1  0
 12 13  2  0
 12 14  1  0
 14 15  1  0
 15 16  1  0
 16 17  2  0
 17 18  1  0
 18 19  1  0
 18 20  2  0
 20 21  1  0
 20 22  1  0
 22 23  2  0
 23 24  1  0
 11 25  1  0
 25 26  1  0
  7 27  1  0
 27  5  1  0
 26  8  1  0
 23 16  1  0
M  END
>  <molecule_chembl_id>  (18) 
CHEMBL5269554

>  <canonical_smiles>  (18) 
C=CC(=O)N1CC(N2CCN(C(=O)CNc3cc(Cl)c(Cl)cc3O)CC2)C1

>  <pchembl_value_mean>  (18) 
4.3

>  <inchi>  (18) 
InChI=1S/C18H22Cl2N4O3/c1-2-17(26)24-10-12(11-24)22-3-5-23(6-4-22)18(27)9-21-15-7-13(19)14(20)8-16(15)25/h2,7-8,12,21,25H,1,3-6,9-11H2

$$$$

     RDKit          2D

 54 58  0  0  0  0  0  0  0  0999 V2000
   11.7214    3.0233    0.0000 N   0  0  0  0  0  0  0  0  0  0  0  0
   10.2274    2.8889    0.0000 C   0  0  0  0  0  0  0  0  0  0  0  0
    9.5969    1.5278    0.0000 O   0  0  0  0  0  0  0  0  0  0  0  0
    9.3640    4.1154    0.0000 C   0  0  0  0  0  0  0  0  0  0  0  0
    7.8700    3.9810    0.0000 C   0  0  0  0  0  0  0  0  0  0  0  0
    7.0066    5.2076    0.0000 C   0  0  0  0  0  0  0  0  0  0  0  0
    5.5126    5.0731    0.0000 N   0  0  0  0  0  0  0  0  0  0  0  0
    4.6492    6.2997    0.0000 C   0  0  0  0  0  0  0  0  0  0  0  0
    5.2797    7.6607    0.0000 O   0  0  0  0  0  0  0  0  0  0  0  0
    3.1552    6.1652    0.0000 C   0  0  0  0  0  0  0  0  0  0  0  0
    3.0655    4.6679    0.0000 C   0  0  0  0  0  0  0  0  0  0  0  0
    2.5385    3.2636    0.0000 O   0  0  0  0  0  0  0  0  0  0  0  0
    1.6209    2.0770    0.0000 C   0  0  0  0  0  0  0  0  0  0  0  0
    0.3943    1.2135    0.0000 C   0  0  0  0  0  0  0  0  0  0  0  0
    1.2760    0.0000    0.0000 C   0  0  0  0  0  0  0  0  0  0  0  0
    0.3943   -1.2135    0.0000 N   0  0  0  0  0  0  0  0  0  0  0  0
   -1.0323   -0.7500    0.0000 N   0  0  0  0  0  0  0  0  0  0  0  0
   -1.0323    0.7500    0.0000 N   0  0  0  0  0  0  0  0  0  0  0  0
   -2.5321    0.7276    0.0000 C   0  0  0  0  0  0  0  0  0  0  0  0
   -3.9719    1.1482    0.0000 C   0  0  0  0  0  0  0  0  0  0  0  0
   -5.2238    1.9745    0.0000 C   0  0  0  0  0  0  0  0  0  0  0  0
   -6.1765    3.1332    0.0000 C   0  0  0  0  0  0  0  0  0  0  0  0
   -6.7453    4.5211    0.0000 C   0  0  0  0  0  0  0  0  0  0  0  0
   -8.2025    4.1655    0.0000 O   0  0  0  0  0  0  0  0  0  0  0  0
   -6.8798    6.0151    0.0000 N   0  0  0  0  0  0  0  0  0  0  0  0
   -6.5679    7.4823    0.0000 C   0  0  0  0  0  0  0  0  0  0  0  0
   -5.8374    8.7924    0.0000 C   0  0  0  0  0  0  0  0  0  0  0  0
   -7.0240    9.7100    0.0000 O   0  0  0  0  0  0  0  0  0  0  0  0
   -4.7532    9.8290    0.0000 N   0  0  0  0  0  0  0  0  0  0  0  0
   -5.8059   10.8976    0.0000 C   0  0  0  0  0  0  0  0  0  0  0  0
   -5.1150   12.2290    0.0000 C   0  0  0  0  0  0  0  0  0  0  0  0
   -3.6352   11.9832    0.0000 C   0  0  0  0  0  0  0  0  0  0  0  0
   -3.4117   10.5000    0.0000 C   0  0  0  0  0  0  0  0  0  0  0  0
   -1.9319   10.7457    0.0000 C   0  0  0  0  0  0  0  0  0  0  0  0
   -1.9544   12.2455    0.0000 O   0  0  0  0  0  0  0  0  0  0  0  0
   -0.4455   10.5444    0.0000 N   0  0  0  0  0  0  0  0  0  0  0  0
    0.9155    9.9138    0.0000 C   0  0  0  0  0  0  0  0  0  0  0  0
    1.7419   11.1657    0.0000 C   0  0  0  0  0  0  0  0  0  0  0  0
    1.0709   12.5073    0.0000 C   0  0  0  0  0  0  0  0  0  0  0  0
   -0.4264   12.5970    0.0000 C   0  0  0  0  0  0  0  0  0  0  0  0
   -1.0974   13.9385    0.0000 C   0  0  0  0  0  0  0  0  0  0  0  0
   -0.2710   15.1904    0.0000 C   0  0  0  0  0  0  0  0  0  0  0  0
    1.2263   15.1007    0.0000 C   0  0  0  0  0  0  0  0  0  0  0  0
    2.0526   16.3525    0.0000 C   0  0  0  0  0  0  0  0  0  0  0  0
    3.5500   16.2628    0.0000 C   0  0  0  0  0  0  0  0  0  0  0  0
    4.2209   14.9213    0.0000 C   0  0  0  0  0  0  0  0  0  0  0  0
    3.3946   13.6694    0.0000 C   0  0  0  0  0  0  0  0  0  0  0  0
    1.8973   13.7591    0.0000 C   0  0  0  0  0  0  0  0  0  0  0  0
    2.0303    8.9101    0.0000 C   0  0  0  0  0  0  0  0  0  0  0  0
    3.1889    9.8628    0.0000 O   0  0  0  0  0  0  0  0  0  0  0  0
    2.7996    7.6225    0.0000 N   0  0  0  0  0  0  0  0  0  0  0  0
    7.6371    6.5686    0.0000 C   0  0  0  0  0  0  0  0  0  0  0  0
    9.1311    6.7031    0.0000 N   0  0  0  0  0  0  0  0  0  0  0  0
    6.7737    7.7952    0.0000 O   0  0  0  0  0  0  0  0  0  0  0  0
  1  2  1  0
  2  3  2  0
  2  4  1  0
  4  5  1  0
  6  5  1  6
  6  7  1  0
  7  8  1  0
  8  9  2  0
 10  8  1  6
 10 11  1  0
 11 12  1  0
 12 13  1  0
 13 14  1  0
 14 15  2  0
 15 16  1  0
 16 17  2  0
 17 18  1  0
 18 19  1  0
 19 20  1  0
 20 21  1  0
 21 22  1  0
 22 23  1  0
 23 24  2  0
 23 25  1  0
 25 26  1  0
 26 27  1  0
 27 28  2  0
 27 29  1  0
 29 30  1  0
 30 31  1  0
 31 32  1  0
 33 32  1  1
 33 34  1  0
 34 35  2  0
 34 36  1  0
 36 37  1  0
 37 38  1  1
 38 39  1  0
 39 40  2  0
 40 41  1  0
 41 42  2  0
 42 43  1  0
 43 44  2  0
 44 45  1  0
 45 46  2  0
 46 47  1  0
 47 48  2  0
 37 49  1  0
 49 50  2  0
 49 51  1  0
  6 52  1  0
 52 53  1  0
 52 54  2  0
 51 10  1  0
 18 14  1  0
 33 29  1  0
 48 39  1  0
 48 43  1  0
M  END
>  <molecule_chembl_id>  (19) 
CHEMBL5093615

>  <canonical_smiles>  (19) 
NC(=O)CC[C@H](NC(=O)[C@@H]1COCc2cnnn2CCCCC(=O)NCC(=O)N2CCC[C@H]2C(=O)N[C@@H](Cc2cccc3ccccc23)C(=O)N1)C(N)=O

>  <pchembl_value_mean>  (19) 
4.3

>  <inchi>  (19) 
InChI=1S/C36H46N10O8/c37-30(47)14-13-26(33(38)50)41-35(52)28-21-54-20-24-18-40-44-46(24)16-4-3-12-31(48)39-19-32(49)45-15-6-11-29(45)36(53)42-27(34(51)43-28)17-23-9-5-8-22-7-1-2-10-25(22)23/h1-2,5,7-10,18,26-29H,3-4,6,11-17,19-21H2,(H2,37,47)(H2,38,50)(H,39,48)(H,41,52)(H,42,53)(H,43,51)/t26-,27-,28-,29-/m0/s1

$$$$

     RDKit          2D

 58 62  0  0  0  0  0  0  0  0999 V2000
   10.2274    2.8889    0.0000 C   0  0  0  0  0  0  0  0  0  0  0  0
    9.3640    4.1154    0.0000 C   0  0  0  0  0  0  0  0  0  0  0  0
    9.9945    5.4765    0.0000 C   0  0  0  0  0  0  0  0  0  0  0  0
    7.8700    3.9810    0.0000 C   0  0  0  0  0  0  0  0  0  0  0  0
    7.0066    5.2076    0.0000 C   0  0  0  0  0  0  0  0  0  0  0  0
    5.5126    5.0731    0.0000 N   0  0  0  0  0  0  0  0  0  0  0  0
    4.6492    6.2997    0.0000 C   0  0  0  0  0  0  0  0  0  0  0  0
    5.2797    7.6607    0.0000 O   0  0  0  0  0  0  0  0  0  0  0  0
    3.1552    6.1652    0.0000 C   0  0  0  0  0  0  0  0  0  0  0  0
    3.0655    4.6679    0.0000 C   0  0  0  0  0  0  0  0  0  0  0  0
    2.5385    3.2636    0.0000 O   0  0  0  0  0  0  0  0  0  0  0  0
    1.6209    2.0770    0.0000 C   0  0  0  0  0  0  0  0  0  0  0  0
    0.3943    1.2135    0.0000 C   0  0  0  0  0  0  0  0  0  0  0  0
    1.2760    0.0000    0.0000 C   0  0  0  0  0  0  0  0  0  0  0  0
    0.3943   -1.2135    0.0000 N   0  0  0  0  0  0  0  0  0  0  0  0
   -1.0323   -0.7500    0.0000 N   0  0  0  0  0  0  0  0  0  0  0  0
   -1.0323    0.7500    0.0000 N   0  0  0  0  0  0  0  0  0  0  0  0
   -2.5321    0.7276    0.0000 C   0  0  0  0  0  0  0  0  0  0  0  0
   -3.9719    1.1482    0.0000 C   0  0  0  0  0  0  0  0  0  0  0  0
   -5.2238    1.9745    0.0000 C   0  0  0  0  0  0  0  0  0  0  0  0
   -6.1765    3.1332    0.0000 C   0  0  0  0  0  0  0  0  0  0  0  0
   -6.7453    4.5211    0.0000 C   0  0  0  0  0  0  0  0  0  0  0  0
   -8.2025    4.1655    0.0000 O   0  0  0  0  0  0  0  0  0  0  0  0
   -6.8798    6.0151    0.0000 N   0  0  0  0  0  0  0  0  0  0  0  0
   -6.5679    7.4823    0.0000 C   0  0  0  0  0  0  0  0  0  0  0  0
   -7.9722    8.0094    0.0000 C   0  0  0  0  0  0  0  0  0  0  0  0
   -9.1309    7.0567    0.0000 C   0  0  0  0  0  0  0  0  0  0  0  0
  -10.5352    7.5838    0.0000 C   0  0  0  0  0  0  0  0  0  0  0  0
  -10.7810    9.0635    0.0000 O   0  0  0  0  0  0  0  0  0  0  0  0
  -11.6939    6.6311    0.0000 O   0  0  0  0  0  0  0  0  0  0  0  0
   -5.8374    8.7924    0.0000 C   0  0  0  0  0  0  0  0  0  0  0  0
   -7.0240    9.7100    0.0000 O   0  0  0  0  0  0  0  0  0  0  0  0
   -4.7532    9.8290    0.0000 N   0  0  0  0  0  0  0  0  0  0  0  0
   -5.8059   10.8976    0.0000 C   0  0  0  0  0  0  0  0  0  0  0  0
   -5.1150   12.2290    0.0000 C   0  0  0  0  0  0  0  0  0  0  0  0
   -3.6352   11.9832    0.0000 C   0  0  0  0  0  0  0  0  0  0  0  0
   -3.4117   10.5000    0.0000 C   0  0  0  0  0  0  0  0  0  0  0  0
   -1.9319   10.7457    0.0000 C   0  0  0  0  0  0  0  0  0  0  0  0
   -1.9544   12.2455    0.0000 O   0  0  0  0  0  0  0  0  0  0  0  0
   -0.4455   10.5444    0.0000 N   0  0  0  0  0  0  0  0  0  0  0  0
    0.9155    9.9138    0.0000 C   0  0  0  0  0  0  0  0  0  0  0  0
    1.7419   11.1657    0.0000 C   0  0  0  0  0  0  0  0  0  0  0  0
    1.0709   12.5073    0.0000 C   0  0  0  0  0  0  0  0  0  0  0  0
   -0.4264   12.5970    0.0000 C   0  0  0  0  0  0  0  0  0  0  0  0
   -1.0974   13.9385    0.0000 C   0  0  0  0  0  0  0  0  0  0  0  0
   -0.2710   15.1904    0.0000 C   0  0  0  0  0  0  0  0  0  0  0  0
    1.2263   15.1007    0.0000 C   0  0  0  0  0  0  0  0  0  0  0  0
    2.0526   16.3525    0.0000 C   0  0  0  0  0  0  0  0  0  0  0  0
    3.5500   16.2628    0.0000 C   0  0  0  0  0  0  0  0  0  0  0  0
    4.2209   14.9213    0.0000 C   0  0  0  0  0  0  0  0  0  0  0  0
    3.3946   13.6694    0.0000 C   0  0  0  0  0  0  0  0  0  0  0  0
    1.8973   13.7591    0.0000 C   0  0  0  0  0  0  0  0  0  0  0  0
    2.0303    8.9101    0.0000 C   0  0  0  0  0  0  0  0  0  0  0  0
    3.1889    9.8628    0.0000 O   0  0  0  0  0  0  0  0  0  0  0  0
    2.7996    7.6225    0.0000 N   0  0  0  0  0  0  0  0  0  0  0  0
    7.6371    6.5686    0.0000 C   0  0  0  0  0  0  0  0  0  0  0  0
    9.1311    6.7031    0.0000 N   0  0  0  0  0  0  0  0  0  0  0  0
    6.7737    7.7952    0.0000 O   0  0  0  0  0  0  0  0  0  0  0  0
  1  2  1  0
  2  3  1  0
  2  4  1  0
  5  4  1  6
  5  6  1  0
  6  7  1  0
  7  8  2  0
  9  7  1  6
  9 10  1  0
 10 11  1  0
 11 12  1  0
 12 13  1  0
 13 14  2  0
 14 15  1  0
 15 16  2  0
 16 17  1  0
 17 18  1  0
 18 19  1  0
 19 20  1  0
 20 21  1  0
 21 22  1  0
 22 23  2  0
 22 24  1  0
 24 25  1  0
 25 26  1  1
 26 27  1  0
 27 28  1  0
 28 29  2  0
 28 30  1  0
 25 31  1  0
 31 32  2  0
 31 33  1  0
 33 34  1  0
 34 35  1  0
 35 36  1  0
 37 36  1  1
 37 38  1  0
 38 39  2  0
 38 40  1  0
 40 41  1  0
 41 42  1  1
 42 43  1  0
 43 44  2  0
 44 45  1  0
 45 46  2  0
 46 47  1  0
 47 48  2  0
 48 49  1  0
 49 50  2  0
 50 51  1  0
 51 52  2  0
 41 53  1  0
 53 54  2  0
 53 55  1  0
  5 56  1  0
 56 57  1  0
 56 58  2  0
 55  9  1  0
 17 13  1  0
 37 33  1  0
 52 43  1  0
 52 47  1  0
M  END
>  <molecule_chembl_id>  (20) 
CHEMBL5088845

>  <canonical_smiles>  (20) 
CC(C)C[C@H](NC(=O)[C@@H]1COCc2cnnn2CCCCC(=O)N[C@@H](CCC(=O)O)C(=O)N2CCC[C@H]2C(=O)N[C@@H](Cc2cccc3ccccc23)C(=O)N1)C(N)=O

>  <pchembl_value_mean>  (20) 
4.31

>  <inchi>  (20) 
InChI=1S/C40H53N9O9/c1-24(2)19-30(36(41)53)44-38(55)32-23-58-22-27-21-42-47-49(27)18-6-5-14-34(50)43-29(15-16-35(51)52)40(57)48-17-8-13-33(48)39(56)45-31(37(54)46-32)20-26-11-7-10-25-9-3-4-12-28(25)26/h3-4,7,9-12,21,24,29-33H,5-6,8,13-20,22-23H2,1-2H3,(H2,41,53)(H,43,50)(H,44,55)(H,45,56)(H,46,54)(H,51,52)/t29-,30-,31-,32-,33-/m0/s1

$$$$

     RDKit          2D

 46 48  0  0  0  0  0  0  0  0999 V2000
    6.9270    1.1910    0.0000 C   0  0  0  0  0  0  0  0  0  0  0  0
    6.4635    2.6176    0.0000 C   0  0  0  0  0  0  0  0  0  0  0  0
    4.9963    2.9295    0.0000 C   0  0  0  0  0  0  0  0  0  0  0  0
    4.5327    4.3560    0.0000 C   0  0  0  0  0  0  0  0  0  0  0  0
    3.0655    4.6679    0.0000 C   0  0  0  0  0  0  0  0  0  0  0  0
    2.5385    3.2636    0.0000 N   0  0  0  0  0  0  0  0  0  0  0  0
    1.6209    2.0770    0.0000 C   0  0  0  0  0  0  0  0  0  0  0  0
    2.6575    0.9928    0.0000 O   0  0  0  0  0  0  0  0  0  0  0  0
    0.3943    1.2135    0.0000 C   0  0  0  0  0  0  0  0  0  0  0  0
    1.2760    0.0000    0.0000 C   0  0  0  0  0  0  0  0  0  0  0  0
    0.3943   -1.2135    0.0000 C   0  0  0  0  0  0  0  0  0  0  0  0
   -1.0323   -0.7500    0.0000 C   0  0  0  0  0  0  0  0  0  0  0  0
   -1.0323    0.7500    0.0000 N   0  0  0  0  0  0  0  0  0  0  0  0
   -2.5321    0.7276    0.0000 C   0  0  0  0  0  0  0  0  0  0  0  0
   -2.7335   -0.7589    0.0000 O   0  0  0  0  0  0  0  0  0  0  0  0
   -3.9719    1.1482    0.0000 C   0  0  0  0  0  0  0  0  0  0  0  0
   -5.2238    1.9745    0.0000 N   0  0  0  0  0  0  0  0  0  0  0  0
   -6.1765    3.1332    0.0000 C   0  0  0  0  0  0  0  0  0  0  0  0
   -7.4641    2.3638    0.0000 O   0  0  0  0  0  0  0  0  0  0  0  0
   -6.7453    4.5211    0.0000 C   0  0  0  0  0  0  0  0  0  0  0  0
   -6.8798    6.0151    0.0000 C   0  0  0  0  0  0  0  0  0  0  0  0
   -6.5679    7.4823    0.0000 C   0  0  0  0  0  0  0  0  0  0  0  0
   -5.8374    8.7924    0.0000 C   0  0  0  0  0  0  0  0  0  0  0  0
   -4.7532    9.8290    0.0000 N   0  0  0  0  0  0  0  0  0  0  0  0
   -5.8059   10.8976    0.0000 N   0  0  0  0  0  0  0  0  0  0  0  0
   -5.1150   12.2290    0.0000 N   0  0  0  0  0  0  0  0  0  0  0  0
   -3.6352   11.9832    0.0000 C   0  0  0  0  0  0  0  0  0  0  0  0
   -3.4117   10.5000    0.0000 C   0  0  0  0  0  0  0  0  0  0  0  0
   -1.9319   10.7457    0.0000 C   0  0  0  0  0  0  0  0  0  0  0  0
   -0.4455   10.5444    0.0000 O   0  0  0  0  0  0  0  0  0  0  0  0
    0.9155    9.9138    0.0000 C   0  0  0  0  0  0  0  0  0  0  0  0
    2.0303    8.9101    0.0000 C   0  0  0  0  0  0  0  0  0  0  0  0
    3.1889    9.8628    0.0000 C   0  0  0  0  0  0  0  0  0  0  0  0
    2.9432   11.3425    0.0000 O   0  0  0  0  0  0  0  0  0  0  0  0
    4.5932    9.3357    0.0000 N   0  0  0  0  0  0  0  0  0  0  0  0
    5.7519   10.2884    0.0000 C   0  0  0  0  0  0  0  0  0  0  0  0
    7.1562    9.7614    0.0000 C   0  0  0  0  0  0  0  0  0  0  0  0
    8.3148   10.7140    0.0000 C   0  0  0  0  0  0  0  0  0  0  0  0
    9.7192   10.1870    0.0000 C   0  0  0  0  0  0  0  0  0  0  0  0
    8.0691   12.1938    0.0000 C   0  0  0  0  0  0  0  0  0  0  0  0
    5.5061   11.7682    0.0000 C   0  0  0  0  0  0  0  0  0  0  0  0
    6.6648   12.7208    0.0000 N   0  0  0  0  0  0  0  0  0  0  0  0
    4.1018   12.2952    0.0000 O   0  0  0  0  0  0  0  0  0  0  0  0
    2.7996    7.6225    0.0000 N   0  0  0  0  0  0  0  0  0  0  0  0
    3.1552    6.1652    0.0000 C   0  0  0  0  0  0  0  0  0  0  0  0
    4.6492    6.2997    0.0000 O   0  0  0  0  0  0  0  0  0  0  0  0
  1  2  1  0
  2  3  1  0
  3  4  1  0
  5  4  1  6
  5  6  1  0
  6  7  1  0
  7  8  2  0
  7  9  1  0
  9 10  1  6
 10 11  1  0
 11 12  1  0
 12 13  1  0
 13 14  1  0
 14 15  2  0
 14 16  1  0
 16 17  1  0
 17 18  1  0
 18 19  2  0
 18 20  1  0
 20 21  1  0
 21 22  1  0
 22 23  1  0
 23 24  1  0
 24 25  1  0
 25 26  2  0
 26 27  1  0
 27 28  2  0
 28 29  1  0
 29 30  1  0
 30 31  1  0
 31 32  1  0
 32 33  1  1
 33 34  2  0
 33 35  1  0
 35 36  1  0
 36 37  1  6
 37 38  1  0
 38 39  1  0
 38 40  1  0
 36 41  1  0
 41 42  1  0
 41 43  2  0
 32 44  1  0
 44 45  1  0
 45 46  2  0
 45  5  1  0
 13  9  1  0
 28 24  1  0
M  END
>  <molecule_chembl_id>  (21) 
CHEMBL5084212

>  <canonical_smiles>  (21) 
CCCC[C@@H]1NC(=O)[C@@H]2CCCN2C(=O)CNC(=O)CCCCn2nncc2COC[C@@H](C(=O)N[C@@H](CC(C)C)C(N)=O)NC1=O

>  <pchembl_value_mean>  (21) 
4.32

>  <inchi>  (21) 
InChI=1S/C30H49N9O7/c1-4-5-9-21-28(43)36-23(29(44)35-22(27(31)42)14-19(2)3)18-46-17-20-15-33-37-39(20)13-7-6-11-25(40)32-16-26(41)38-12-8-10-24(38)30(45)34-21/h15,19,21-24H,4-14,16-18H2,1-3H3,(H2,31,42)(H,32,40)(H,34,45)(H,35,44)(H,36,43)/t21-,22-,23-,24-/m0/s1

$$$$

     RDKit          2D

 49 53  0  0  0  0  0  0  0  0999 V2000
   10.0982    4.7412    0.0000 C   0  0  0  0  0  0  0  0  0  0  0  0
    8.9835    5.7449    0.0000 C   0  0  0  0  0  0  0  0  0  0  0  0
    9.2954    7.2121    0.0000 C   0  0  0  0  0  0  0  0  0  0  0  0
    7.5569    5.2814    0.0000 C   0  0  0  0  0  0  0  0  0  0  0  0
    6.4422    6.2851    0.0000 C   0  0  0  0  0  0  0  0  0  0  0  0
    5.0156    5.8215    0.0000 N   0  0  0  0  0  0  0  0  0  0  0  0
    3.9009    6.8252    0.0000 C   0  0  0  0  0  0  0  0  0  0  0  0
    4.2128    8.2925    0.0000 O   0  0  0  0  0  0  0  0  0  0  0  0
    2.4743    6.3617    0.0000 C   0  0  0  0  0  0  0  0  0  0  0  0
    2.6831    4.8763    0.0000 C   0  0  0  0  0  0  0  0  0  0  0  0
    2.3712    3.4091    0.0000 O   0  0  0  0  0  0  0  0  0  0  0  0
    1.5763    2.1370    0.0000 C   0  0  0  0  0  0  0  0  0  0  0  0
    0.3943    1.2135    0.0000 C   0  0  0  0  0  0  0  0  0  0  0  0
    1.2760    0.0000    0.0000 C   0  0  0  0  0  0  0  0  0  0  0  0
    0.3943   -1.2135    0.0000 N   0  0  0  0  0  0  0  0  0  0  0  0
   -1.0323   -0.7500    0.0000 N   0  0  0  0  0  0  0  0  0  0  0  0
   -1.0323    0.7500    0.0000 N   0  0  0  0  0  0  0  0  0  0  0  0
   -2.5314    0.8023    0.0000 C   0  0  0  0  0  0  0  0  0  0  0  0
   -3.9221    1.3643    0.0000 C   0  0  0  0  0  0  0  0  0  0  0  0
   -5.0369    2.3680    0.0000 C   0  0  0  0  0  0  0  0  0  0  0  0
   -5.7411    3.6924    0.0000 C   0  0  0  0  0  0  0  0  0  0  0  0
   -5.9498    5.1778    0.0000 C   0  0  0  0  0  0  0  0  0  0  0  0
   -7.4489    5.2301    0.0000 O   0  0  0  0  0  0  0  0  0  0  0  0
   -5.6380    6.6450    0.0000 N   0  0  0  0  0  0  0  0  0  0  0  0
   -7.0934    7.0079    0.0000 C   0  0  0  0  0  0  0  0  0  0  0  0
   -7.1980    8.5042    0.0000 C   0  0  0  0  0  0  0  0  0  0  0  0
   -5.8073    9.0661    0.0000 C   0  0  0  0  0  0  0  0  0  0  0  0
   -4.8431    7.9171    0.0000 C   0  0  0  0  0  0  0  0  0  0  0  0
   -3.6611    8.8406    0.0000 C   0  0  0  0  0  0  0  0  0  0  0  0
   -4.3653   10.1650    0.0000 O   0  0  0  0  0  0  0  0  0  0  0  0
   -2.2345    9.3041    0.0000 N   0  0  0  0  0  0  0  0  0  0  0  0
   -0.7354    9.2517    0.0000 C   0  0  0  0  0  0  0  0  0  0  0  0
   -0.4235   10.7190    0.0000 C   0  0  0  0  0  0  0  0  0  0  0  0
   -1.5382   11.7227    0.0000 C   0  0  0  0  0  0  0  0  0  0  0  0
   -2.9648   11.2591    0.0000 C   0  0  0  0  0  0  0  0  0  0  0  0
   -4.0796   12.2628    0.0000 C   0  0  0  0  0  0  0  0  0  0  0  0
   -3.7677   13.7300    0.0000 C   0  0  0  0  0  0  0  0  0  0  0  0
   -2.3411   14.1936    0.0000 C   0  0  0  0  0  0  0  0  0  0  0  0
   -2.0292   15.6608    0.0000 C   0  0  0  0  0  0  0  0  0  0  0  0
   -0.6026   16.1243    0.0000 C   0  0  0  0  0  0  0  0  0  0  0  0
    0.5121   15.1206    0.0000 C   0  0  0  0  0  0  0  0  0  0  0  0
    0.2002   13.6534    0.0000 C   0  0  0  0  0  0  0  0  0  0  0  0
   -1.2264   13.1899    0.0000 C   0  0  0  0  0  0  0  0  0  0  0  0
    0.6554    8.6898    0.0000 C   0  0  0  0  0  0  0  0  0  0  0  0
    1.4503    9.9619    0.0000 O   0  0  0  0  0  0  0  0  0  0  0  0
    1.7701    7.6861    0.0000 N   0  0  0  0  0  0  0  0  0  0  0  0
    6.7541    7.7523    0.0000 C   0  0  0  0  0  0  0  0  0  0  0  0
    8.1806    8.2158    0.0000 N   0  0  0  0  0  0  0  0  0  0  0  0
    5.6393    8.7560    0.0000 O   0  0  0  0  0  0  0  0  0  0  0  0
  1  2  1  0
  2  3  1  0
  2  4  1  0
  5  4  1  6
  5  6  1  0
  6  7  1  0
  7  8  2  0
  9  7  1  6
  9 10  1  0
 10 11  1  0
 11 12  1  0
 12 13  1  0
 13 14  2  0
 14 15  1  0
 15 16  2  0
 16 17  1  0
 17 18  1  0
 18 19  1  0
 19 20  1  0
 20 21  1  0
 21 22  1  0
 22 23  2  0
 22 24  1  0
 24 25  1  0
 25 26  1  0
 26 27  1  0
 28 27  1  1
 28 29  1  0
 29 30  2  0
 29 31  1  0
 31 32  1  0
 32 33  1  1
 33 34  1  0
 34 35  2  0
 35 36  1  0
 36 37  2  0
 37 38  1  0
 38 39  2  0
 39 40  1  0
 40 41  2  0
 41 42  1  0
 42 43  2  0
 32 44  1  0
 44 45  2  0
 44 46  1  0
  5 47  1  0
 47 48  1  0
 47 49  2  0
 46  9  1  0
 17 13  1  0
 28 24  1  0
 43 34  1  0
 43 38  1  0
M  END
>  <molecule_chembl_id>  (22) 
CHEMBL5078981

>  <canonical_smiles>  (22) 
CC(C)C[C@H](NC(=O)[C@@H]1COCc2cnnn2CCCCC(=O)N2CCC[C@H]2C(=O)N[C@@H](Cc2cccc3ccccc23)C(=O)N1)C(N)=O

>  <pchembl_value_mean>  (22) 
4.32

>  <inchi>  (22) 
InChI=1S/C35H46N8O6/c1-22(2)17-27(32(36)45)38-34(47)29-21-49-20-25-19-37-41-43(25)16-6-5-14-31(44)42-15-8-13-30(42)35(48)39-28(33(46)40-29)18-24-11-7-10-23-9-3-4-12-26(23)24/h3-4,7,9-12,19,22,27-30H,5-6,8,13-18,20-21H2,1-2H3,(H2,36,45)(H,38,47)(H,39,48)(H,40,46)/t27-,28-,29-,30-/m0/s1

$$$$

     RDKit          2D

 65 70  0  0  0  0  0  0  0  0999 V2000
   10.2274    2.8889    0.0000 C   0  0  0  0  0  0  0  0  0  0  0  0
    9.3640    4.1154    0.0000 C   0  0  0  0  0  0  0  0  0  0  0  0
    9.9945    5.4765    0.0000 C   0  0  0  0  0  0  0  0  0  0  0  0
    7.8700    3.9810    0.0000 C   0  0  0  0  0  0  0  0  0  0  0  0
    7.0066    5.2076    0.0000 C   0  0  0  0  0  0  0  0  0  0  0  0
    5.5126    5.0731    0.0000 N   0  0  0  0  0  0  0  0  0  0  0  0
    4.6492    6.2997    0.0000 C   0  0  0  0  0  0  0  0  0  0  0  0
    5.2797    7.6607    0.0000 O   0  0  0  0  0  0  0  0  0  0  0  0
    3.1552    6.1652    0.0000 C   0  0  0  0  0  0  0  0  0  0  0  0
    3.0655    4.6679    0.0000 C   0  0  0  0  0  0  0  0  0  0  0  0
    2.5385    3.2636    0.0000 O   0  0  0  0  0  0  0  0  0  0  0  0
    1.6209    2.0770    0.0000 C   0  0  0  0  0  0  0  0  0  0  0  0
    0.3943    1.2135    0.0000 C   0  0  0  0  0  0  0  0  0  0  0  0
    1.2760    0.0000    0.0000 C   0  0  0  0  0  0  0  0  0  0  0  0
    0.3943   -1.2135    0.0000 N   0  0  0  0  0  0  0  0  0  0  0  0
   -1.0323   -0.7500    0.0000 N   0  0  0  0  0  0  0  0  0  0  0  0
   -1.0323    0.7500    0.0000 N   0  0  0  0  0  0  0  0  0  0  0  0
   -2.5321    0.7276    0.0000 C   0  0  0  0  0  0  0  0  0  0  0  0
   -3.9719    1.1482    0.0000 C   0  0  0  0  0  0  0  0  0  0  0  0
   -5.2238    1.9745    0.0000 C   0  0  0  0  0  0  0  0  0  0  0  0
   -6.1765    3.1332    0.0000 C   0  0  0  0  0  0  0  0  0  0  0  0
   -6.7453    4.5211    0.0000 C   0  0  0  0  0  0  0  0  0  0  0  0
   -8.2025    4.1655    0.0000 O   0  0  0  0  0  0  0  0  0  0  0  0
   -6.8798    6.0151    0.0000 N   0  0  0  0  0  0  0  0  0  0  0  0
   -6.5679    7.4823    0.0000 C   0  0  0  0  0  0  0  0  0  0  0  0
   -5.8374    8.7924    0.0000 C   0  0  0  0  0  0  0  0  0  0  0  0
   -7.0240    9.7100    0.0000 O   0  0  0  0  0  0  0  0  0  0  0  0
   -4.7532    9.8290    0.0000 N   0  0  0  0  0  0  0  0  0  0  0  0
   -5.8059   10.8976    0.0000 C   0  0  0  0  0  0  0  0  0  0  0  0
   -5.1150   12.2290    0.0000 C   0  0  0  0  0  0  0  0  0  0  0  0
   -3.6352   11.9832    0.0000 C   0  0  0  0  0  0  0  0  0  0  0  0
   -3.4117   10.5000    0.0000 C   0  0  0  0  0  0  0  0  0  0  0  0
   -1.9319   10.7457    0.0000 C   0  0  0  0  0  0  0  0  0  0  0  0
   -1.9544   12.2455    0.0000 O   0  0  0  0  0  0  0  0  0  0  0  0
   -0.4455   10.5444    0.0000 N   0  0  0  0  0  0  0  0  0  0  0  0
    0.9155    9.9138    0.0000 C   0  0  0  0  0  0  0  0  0  0  0  0
    1.7419   11.1657    0.0000 C   0  0  0  0  0  0  0  0  0  0  0  0
    1.0709   12.5073    0.0000 C   0  0  0  0  0  0  0  0  0  0  0  0
   -0.4264   12.5970    0.0000 C   0  0  0  0  0  0  0  0  0  0  0  0
   -1.0974   13.9385    0.0000 C   0  0  0  0  0  0  0  0  0  0  0  0
   -0.2710   15.1904    0.0000 C   0  0  0  0  0  0  0  0  0  0  0  0
    1.2263   15.1007    0.0000 C   0  0  0  0  0  0  0  0  0  0  0  0
    2.0526   16.3525    0.0000 C   0  0  0  0  0  0  0  0  0  0  0  0
    3.5500   16.2628    0.0000 C   0  0  0  0  0  0  0  0  0  0  0  0
    4.2209   14.9213    0.0000 C   0  0  0  0  0  0  0  0  0  0  0  0
    3.3946   13.6694    0.0000 C   0  0  0  0  0  0  0  0  0  0  0  0
    1.8973   13.7591    0.0000 C   0  0  0  0  0  0  0  0  0  0  0  0
    2.0303    8.9101    0.0000 C   0  0  0  0  0  0  0  0  0  0  0  0
    3.1889    9.8628    0.0000 O   0  0  0  0  0  0  0  0  0  0  0  0
    2.7996    7.6225    0.0000 N   0  0  0  0  0  0  0  0  0  0  0  0
    7.6371    6.5686    0.0000 C   0  0  0  0  0  0  0  0  0  0  0  0
    6.7737    7.7952    0.0000 O   0  0  0  0  0  0  0  0  0  0  0  0
    9.1311    6.7031    0.0000 N   0  0  0  0  0  0  0  0  0  0  0  0
    9.7616    8.0641    0.0000 C   0  0  0  0  0  0  0  0  0  0  0  0
   11.2556    8.1986    0.0000 C   0  0  0  0  0  0  0  0  0  0  0  0
    8.8982    9.2907    0.0000 C   0  0  0  0  0  0  0  0  0  0  0  0
    7.4042    9.1562    0.0000 O   0  0  0  0  0  0  0  0  0  0  0  0
    9.5287   10.6517    0.0000 N   0  0  0  0  0  0  0  0  0  0  0  0
   11.0004   10.9416    0.0000 C   0  0  0  0  0  0  0  0  0  0  0  0
   11.1795   12.4309    0.0000 C   0  0  0  0  0  0  0  0  0  0  0  0
    9.8185   13.0614    0.0000 C   0  0  0  0  0  0  0  0  0  0  0  0
    8.7982   11.9618    0.0000 C   0  0  0  0  0  0  0  0  0  0  0  0
    7.3090   12.1409    0.0000 C   0  0  0  0  0  0  0  0  0  0  0  0
    6.4092   10.9407    0.0000 N   0  0  0  0  0  0  0  0  0  0  0  0
    6.7194   13.5202    0.0000 O   0  0  0  0  0  0  0  0  0  0  0  0
  1  2  1  0
  2  3  1  0
  2  4  1  0
  5  4  1  6
  5  6  1  0
  6  7  1  0
  7  8  2  0
  9  7  1  1
  9 10  1  0
 10 11  1  0
 11 12  1  0
 12 13  1  0
 13 14  2  0
 14 15  1  0
 15 16  2  0
 16 17  1  0
 17 18  1  0
 18 19  1  0
 19 20  1  0
 20 21  1  0
 21 22  1  0
 22 23  2  0
 22 24  1  0
 24 25  1  0
 25 26  1  0
 26 27  2  0
 26 28  1  0
 28 29  1  0
 29 30  1  0
 30 31  1  0
 32 31  1  1
 32 33  1  0
 33 34  2  0
 33 35  1  0
 35 36  1  0
 36 37  1  1
 37 38  1  0
 38 39  2  0
 39 40  1  0
 40 41  2  0
 41 42  1  0
 42 43  2  0
 43 44  1  0
 44 45  2  0
 45 46  1  0
 46 47  2  0
 36 48  1  0
 48 49  2  0
 48 50  1  0
  5 51  1  0
 51 52  2  0
 51 53  1  0
 53 54  1  0
 54 55  1  6
 54 56  1  0
 56 57  2  0
 56 58  1  0
 58 59  1  0
 59 60  1  0
 60 61  1  0
 61 62  1  0
 62 63  1  6
 63 64  1  0
 63 65  2  0
 50  9  1  0
 62 58  1  0
 17 13  1  0
 32 28  1  0
 47 38  1  0
 47 42  1  0
M  END
>  <molecule_chembl_id>  (23) 
CHEMBL5075344

>  <canonical_smiles>  (23) 
CC(C)C[C@H](NC(=O)[C@H]1COCc2cnnn2CCCCC(=O)NCC(=O)N2CCC[C@H]2C(=O)N[C@@H](Cc2cccc3ccccc23)C(=O)N1)C(=O)N[C@@H](C)C(=O)N1CCC[C@H]1C(N)=O

>  <pchembl_value_mean>  (23) 
4.34

>  <inchi>  (23) 
InChI=1S/C45H61N11O9/c1-27(2)21-33(41(60)49-28(3)45(64)55-19-9-15-36(55)40(46)59)50-43(62)35-26-65-25-31-23-48-53-56(31)20-7-6-17-38(57)47-24-39(58)54-18-10-16-37(54)44(63)51-34(42(61)52-35)22-30-13-8-12-29-11-4-5-14-32(29)30/h4-5,8,11-14,23,27-28,33-37H,6-7,9-10,15-22,24-26H2,1-3H3,(H2,46,59)(H,47,57)(H,49,60)(H,50,62)(H,51,63)(H,52,61)/t28-,33-,34-,35+,36-,37-/m0/s1

$$$$

     RDKit          2D

 49 52  0  0  0  0  0  0  0  0999 V2000
   10.2274    2.8889    0.0000 C   0  0  0  0  0  0  0  0  0  0  0  0
    9.3640    4.1154    0.0000 C   0  0  0  0  0  0  0  0  0  0  0  0
    9.9945    5.4765    0.0000 C   0  0  0  0  0  0  0  0  0  0  0  0
    7.8700    3.9810    0.0000 C   0  0  0  0  0  0  0  0  0  0  0  0
    7.0066    5.2076    0.0000 C   0  0  0  0  0  0  0  0  0  0  0  0
    5.5126    5.0731    0.0000 N   0  0  0  0  0  0  0  0  0  0  0  0
    4.6492    6.2997    0.0000 C   0  0  0  0  0  0  0  0  0  0  0  0
    5.2797    7.6607    0.0000 O   0  0  0  0  0  0  0  0  0  0  0  0
    3.1552    6.1652    0.0000 C   0  0  0  0  0  0  0  0  0  0  0  0
    3.0655    4.6679    0.0000 C   0  0  0  0  0  0  0  0  0  0  0  0
    2.5385    3.2636    0.0000 O   0  0  0  0  0  0  0  0  0  0  0  0
    1.6209    2.0770    0.0000 C   0  0  0  0  0  0  0  0  0  0  0  0
    0.3943    1.2135    0.0000 C   0  0  0  0  0  0  0  0  0  0  0  0
    1.2760    0.0000    0.0000 C   0  0  0  0  0  0  0  0  0  0  0  0
    0.3943   -1.2135    0.0000 N   0  0  0  0  0  0  0  0  0  0  0  0
   -1.0323   -0.7500    0.0000 N   0  0  0  0  0  0  0  0  0  0  0  0
   -1.0323    0.7500    0.0000 N   0  0  0  0  0  0  0  0  0  0  0  0
   -2.5321    0.7276    0.0000 C   0  0  0  0  0  0  0  0  0  0  0  0
   -3.9719    1.1482    0.0000 C   0  0  0  0  0  0  0  0  0  0  0  0
   -5.2238    1.9745    0.0000 C   0  0  0  0  0  0  0  0  0  0  0  0
   -6.1765    3.1332    0.0000 C   0  0  0  0  0  0  0  0  0  0  0  0
   -6.7453    4.5211    0.0000 C   0  0  0  0  0  0  0  0  0  0  0  0
   -8.2025    4.1655    0.0000 O   0  0  0  0  0  0  0  0  0  0  0  0
   -6.8798    6.0151    0.0000 N   0  0  0  0  0  0  0  0  0  0  0  0
   -6.5679    7.4823    0.0000 C   0  0  0  0  0  0  0  0  0  0  0  0
   -5.8374    8.7924    0.0000 C   0  0  0  0  0  0  0  0  0  0  0  0
   -7.0240    9.7100    0.0000 O   0  0  0  0  0  0  0  0  0  0  0  0
   -4.7532    9.8290    0.0000 N   0  0  0  0  0  0  0  0  0  0  0  0
   -5.8059   10.8976    0.0000 C   0  0  0  0  0  0  0  0  0  0  0  0
   -5.1150   12.2290    0.0000 C   0  0  0  0  0  0  0  0  0  0  0  0
   -3.6352   11.9832    0.0000 C   0  0  0  0  0  0  0  0  0  0  0  0
   -3.4117   10.5000    0.0000 C   0  0  0  0  0  0  0  0  0  0  0  0
   -1.9319   10.7457    0.0000 C   0  0  0  0  0  0  0  0  0  0  0  0
   -1.9544   12.2455    0.0000 O   0  0  0  0  0  0  0  0  0  0  0  0
   -0.4455   10.5444    0.0000 N   0  0  0  0  0  0  0  0  0  0  0  0
    0.9155    9.9138    0.0000 C   0  0  0  0  0  0  0  0  0  0  0  0
    1.7419   11.1657    0.0000 C   0  0  0  0  0  0  0  0  0  0  0  0
    1.0709   12.5073    0.0000 C   0  0  0  0  0  0  0  0  0  0  0  0
   -0.4264   12.5970    0.0000 C   0  0  0  0  0  0  0  0  0  0  0  0
   -1.0974   13.9385    0.0000 C   0  0  0  0  0  0  0  0  0  0  0  0
   -0.2710   15.1904    0.0000 C   0  0  0  0  0  0  0  0  0  0  0  0
    1.2263   15.1007    0.0000 N   0  0  0  0  0  0  0  0  0  0  0  0
    1.8973   13.7591    0.0000 C   0  0  0  0  0  0  0  0  0  0  0  0
    2.0303    8.9101    0.0000 C   0  0  0  0  0  0  0  0  0  0  0  0
    3.1889    9.8628    0.0000 O   0  0  0  0  0  0  0  0  0  0  0  0
    2.7996    7.6225    0.0000 N   0  0  0  0  0  0  0  0  0  0  0  0
    7.6371    6.5686    0.0000 C   0  0  0  0  0  0  0  0  0  0  0  0
    9.1311    6.7031    0.0000 N   0  0  0  0  0  0  0  0  0  0  0  0
    6.7737    7.7952    0.0000 O   0  0  0  0  0  0  0  0  0  0  0  0
  1  2  1  0
  2  3  1  0
  2  4  1  0
  5  4  1  6
  5  6  1  0
  6  7  1  0
  7  8  2  0
  9  7  1  6
  9 10  1  0
 10 11  1  0
 11 12  1  0
 12 13  1  0
 13 14  2  0
 14 15  1  0
 15 16  2  0
 16 17  1  0
 17 18  1  0
 18 19  1  0
 19 20  1  0
 20 21  1  0
 21 22  1  0
 22 23  2  0
 22 24  1  0
 24 25  1  0
 25 26  1  0
 26 27  2  0
 26 28  1  0
 28 29  1  0
 29 30  1  0
 30 31  1  0
 32 31  1  1
 32 33  1  0
 33 34  2  0
 33 35  1  0
 35 36  1  0
 36 37  1  1
 37 38  1  0
 38 39  2  0
 39 40  1  0
 40 41  2  0
 41 42  1  0
 42 43  2  0
 36 44  1  0
 44 45  2  0
 44 46  1  0
  5 47  1  0
 47 48  1  0
 47 49  2  0
 46  9  1  0
 17 13  1  0
 32 28  1  0
 43 38  1  0
M  END
>  <molecule_chembl_id>  (24) 
CHEMBL5083699

>  <canonical_smiles>  (24) 
CC(C)C[C@H](NC(=O)[C@@H]1COCc2cnnn2CCCCC(=O)NCC(=O)N2CCC[C@H]2C(=O)N[C@@H](Cc2cccnc2)C(=O)N1)C(N)=O

>  <pchembl_value_mean>  (24) 
4.39

>  <inchi>  (24) 
InChI=1S/C32H46N10O7/c1-20(2)13-23(29(33)45)37-31(47)25-19-49-18-22-16-36-40-42(22)12-4-3-9-27(43)35-17-28(44)41-11-6-8-26(41)32(48)38-24(30(46)39-25)14-21-7-5-10-34-15-21/h5,7,10,15-16,20,23-26H,3-4,6,8-9,11-14,17-19H2,1-2H3,(H2,33,45)(H,35,43)(H,37,47)(H,38,48)(H,39,46)/t23-,24-,25-,26-/m0/s1

$$$$

     RDKit          2D

 65 69  0  0  0  0  0  0  0  0999 V2000
    9.7616    8.0641    0.0000 C   0  0  0  0  0  0  0  0  0  0  0  0
    9.1311    6.7031    0.0000 C   0  0  0  0  0  0  0  0  0  0  0  0
    9.9945    5.4765    0.0000 O   0  0  0  0  0  0  0  0  0  0  0  0
    7.6371    6.5686    0.0000 N   0  0  0  0  0  0  0  0  0  0  0  0
    7.0066    5.2076    0.0000 C   0  0  0  0  0  0  0  0  0  0  0  0
    7.8700    3.9810    0.0000 C   0  0  0  0  0  0  0  0  0  0  0  0
    7.2395    2.6199    0.0000 C   0  0  0  0  0  0  0  0  0  0  0  0
    5.7455    2.4855    0.0000 O   0  0  0  0  0  0  0  0  0  0  0  0
    8.1029    1.3934    0.0000 O   0  0  0  0  0  0  0  0  0  0  0  0
    5.5126    5.0731    0.0000 C   0  0  0  0  0  0  0  0  0  0  0  0
    4.8821    3.7121    0.0000 O   0  0  0  0  0  0  0  0  0  0  0  0
    4.6492    6.2997    0.0000 N   0  0  0  0  0  0  0  0  0  0  0  0
    3.1552    6.1652    0.0000 C   0  0  0  0  0  0  0  0  0  0  0  0
    3.0655    4.6679    0.0000 C   0  0  0  0  0  0  0  0  0  0  0  0
    2.5385    3.2636    0.0000 C   0  0  0  0  0  0  0  0  0  0  0  0
    1.6209    2.0770    0.0000 C   0  0  0  0  0  0  0  0  0  0  0  0
    0.3943    1.2135    0.0000 N   0  0  0  0  0  0  0  0  0  0  0  0
    1.2760    0.0000    0.0000 N   0  0  0  0  0  0  0  0  0  0  0  0
    0.3943   -1.2135    0.0000 N   0  0  0  0  0  0  0  0  0  0  0  0
   -1.0323   -0.7500    0.0000 C   0  0  0  0  0  0  0  0  0  0  0  0
   -1.0323    0.7500    0.0000 C   0  0  0  0  0  0  0  0  0  0  0  0
   -2.5321    0.7276    0.0000 C   0  0  0  0  0  0  0  0  0  0  0  0
   -3.9719    1.1482    0.0000 O   0  0  0  0  0  0  0  0  0  0  0  0
   -5.2238    1.9745    0.0000 C   0  0  0  0  0  0  0  0  0  0  0  0
   -6.1765    3.1332    0.0000 C   0  0  0  0  0  0  0  0  0  0  0  0
   -7.4641    2.3638    0.0000 C   0  0  0  0  0  0  0  0  0  0  0  0
   -7.4417    0.8640    0.0000 O   0  0  0  0  0  0  0  0  0  0  0  0
   -8.7743    3.0943    0.0000 N   0  0  0  0  0  0  0  0  0  0  0  0
  -10.0619    2.3250    0.0000 C   0  0  0  0  0  0  0  0  0  0  0  0
  -11.3720    3.0554    0.0000 C   0  0  0  0  0  0  0  0  0  0  0  0
  -12.6597    2.2861    0.0000 C   0  0  0  0  0  0  0  0  0  0  0  0
  -13.9698    3.0166    0.0000 C   0  0  0  0  0  0  0  0  0  0  0  0
  -12.6373    0.7863    0.0000 C   0  0  0  0  0  0  0  0  0  0  0  0
  -10.0395    0.8251    0.0000 C   0  0  0  0  0  0  0  0  0  0  0  0
  -11.3272    0.0558    0.0000 N   0  0  0  0  0  0  0  0  0  0  0  0
   -8.7294    0.0946    0.0000 O   0  0  0  0  0  0  0  0  0  0  0  0
   -6.7453    4.5211    0.0000 N   0  0  0  0  0  0  0  0  0  0  0  0
   -6.8798    6.0151    0.0000 C   0  0  0  0  0  0  0  0  0  0  0  0
   -8.3771    6.1048    0.0000 O   0  0  0  0  0  0  0  0  0  0  0  0
   -6.5679    7.4823    0.0000 C   0  0  0  0  0  0  0  0  0  0  0  0
   -7.9722    8.0094    0.0000 C   0  0  0  0  0  0  0  0  0  0  0  0
   -8.2180    9.4891    0.0000 C   0  0  0  0  0  0  0  0  0  0  0  0
   -7.0593   10.4418    0.0000 C   0  0  0  0  0  0  0  0  0  0  0  0
   -7.3051   11.9215    0.0000 C   0  0  0  0  0  0  0  0  0  0  0  0
   -8.7094   12.4486    0.0000 C   0  0  0  0  0  0  0  0  0  0  0  0
   -9.8681   11.4959    0.0000 C   0  0  0  0  0  0  0  0  0  0  0  0
  -11.2724   12.0230    0.0000 C   0  0  0  0  0  0  0  0  0  0  0  0
  -12.4310   11.0703    0.0000 C   0  0  0  0  0  0  0  0  0  0  0  0
  -12.1853    9.5906    0.0000 C   0  0  0  0  0  0  0  0  0  0  0  0
  -10.7810    9.0635    0.0000 C   0  0  0  0  0  0  0  0  0  0  0  0
   -9.6223   10.0162    0.0000 C   0  0  0  0  0  0  0  0  0  0  0  0
   -5.8374    8.7924    0.0000 N   0  0  0  0  0  0  0  0  0  0  0  0
   -4.7532    9.8290    0.0000 C   0  0  0  0  0  0  0  0  0  0  0  0
   -5.6166   11.0556    0.0000 O   0  0  0  0  0  0  0  0  0  0  0  0
   -3.4117   10.5000    0.0000 C   0  0  0  0  0  0  0  0  0  0  0  0
   -4.1026   11.8314    0.0000 C   0  0  0  0  0  0  0  0  0  0  0  0
   -3.0499   12.8999    0.0000 C   0  0  0  0  0  0  0  0  0  0  0  0
   -1.7084   12.2290    0.0000 C   0  0  0  0  0  0  0  0  0  0  0  0
   -1.9319   10.7457    0.0000 N   0  0  0  0  0  0  0  0  0  0  0  0
   -0.4455   10.5444    0.0000 C   0  0  0  0  0  0  0  0  0  0  0  0
   -0.0249   11.9842    0.0000 O   0  0  0  0  0  0  0  0  0  0  0  0
    0.9155    9.9138    0.0000 C   0  0  0  0  0  0  0  0  0  0  0  0
    2.0303    8.9101    0.0000 N   0  0  0  0  0  0  0  0  0  0  0  0
    2.7996    7.6225    0.0000 C   0  0  0  0  0  0  0  0  0  0  0  0
    4.1876    8.1913    0.0000 O   0  0  0  0  0  0  0  0  0  0  0  0
  1  2  1  0
  2  3  2  0
  2  4  1  0
  4  5  1  0
  5  6  1  1
  6  7  1  0
  7  8  2  0
  7  9  1  0
  5 10  1  0
 10 11  2  0
 10 12  1  0
 13 12  1  1
 13 14  1  0
 14 15  1  0
 15 16  1  0
 16 17  1  0
 17 18  1  0
 18 19  2  0
 19 20  1  0
 20 21  2  0
 21 22  1  0
 22 23  1  0
 23 24  1  0
 24 25  1  0
 25 26  1  6
 26 27  2  0
 26 28  1  0
 28 29  1  0
 29 30  1  6
 30 31  1  0
 31 32  1  0
 31 33  1  0
 29 34  1  0
 34 35  1  0
 34 36  2  0
 25 37  1  0
 37 38  1  0
 38 39  2  0
 38 40  1  0
 40 41  1  6
 41 42  1  0
 42 43  2  0
 43 44  1  0
 44 45  2  0
 45 46  1  0
 46 47  2  0
 47 48  1  0
 48 49  2  0
 49 50  1  0
 50 51  2  0
 40 52  1  0
 52 53  1  0
 53 54  2  0
 53 55  1  0
 55 56  1  6
 56 57  1  0
 57 58  1  0
 58 59  1  0
 59 60  1  0
 60 61  2  0
 60 62  1  0
 62 63  1  0
 63 64  1  0
 64 65  2  0
 64 13  1  0
 21 17  1  0
 51 42  1  0
 59 55  1  0
 51 46  1  0
M  END
>  <molecule_chembl_id>  (25) 
CHEMBL5081734

>  <canonical_smiles>  (25) 
CC(=O)N[C@@H](CC(=O)O)C(=O)N[C@H]1CCCn2nncc2COC[C@H](C(=O)N[C@@H](CC(C)C)C(N)=O)NC(=O)[C@H](Cc2cccc3ccccc23)NC(=O)[C@@H]2CCCN2C(=O)CNC1=O

>  <pchembl_value_mean>  (25) 
4.42

>  <inchi>  (25) 
InChI=1S/C43H57N11O11/c1-24(2)17-31(38(44)59)49-42(63)34-23-65-22-28-20-46-52-54(28)16-7-13-30(48-41(62)33(19-37(57)58)47-25(3)55)39(60)45-21-36(56)53-15-8-14-35(53)43(64)50-32(40(61)51-34)18-27-11-6-10-26-9-4-5-12-29(26)27/h4-6,9-12,20,24,30-35H,7-8,13-19,21-23H2,1-3H3,(H2,44,59)(H,45,60)(H,47,55)(H,48,62)(H,49,63)(H,50,64)(H,51,61)(H,57,58)/t30-,31-,32-,33-,34+,35-/m0/s1

$$$$

     RDKit          2D

 50 52  0  0  0  0  0  0  0  0999 V2000
   -3.0000   -7.7942    0.0000 C   0  0  0  0  0  0  0  0  0  0  0  0
   -3.7500   -6.4952    0.0000 C   0  0  0  0  0  0  0  0  0  0  0  0
   -5.2500   -6.4952    0.0000 O   0  0  0  0  0  0  0  0  0  0  0  0
   -3.0000   -5.1962    0.0000 N   0  0  0  0  0  0  0  0  0  0  0  0
   -3.7500   -3.8971    0.0000 C   0  0  0  0  0  0  0  0  0  0  0  0
   -3.0000   -2.5981    0.0000 C   0  0  0  0  0  0  0  0  0  0  0  0
   -1.5000   -2.5981    0.0000 C   0  0  0  0  0  0  0  0  0  0  0  0
   -0.7500   -3.8971    0.0000 C   0  0  0  0  0  0  0  0  0  0  0  0
    0.7500   -3.8971    0.0000 C   0  0  0  0  0  0  0  0  0  0  0  0
    1.5000   -2.5981    0.0000 C   0  0  0  0  0  0  0  0  0  0  0  0
    0.7500   -1.2990    0.0000 C   0  0  0  0  0  0  0  0  0  0  0  0
    1.5000    0.0000    0.0000 C   0  0  0  0  0  0  0  0  0  0  0  0
    0.7500    1.2990    0.0000 C   0  0  0  0  0  0  0  0  0  0  0  0
   -0.7500    1.2990    0.0000 C   0  0  0  0  0  0  0  0  0  0  0  0
   -1.5000    0.0000    0.0000 C   0  0  0  0  0  0  0  0  0  0  0  0
   -0.7500   -1.2990    0.0000 C   0  0  0  0  0  0  0  0  0  0  0  0
   -5.2500   -3.8971    0.0000 C   0  0  0  0  0  0  0  0  0  0  0  0
   -6.0000   -2.5981    0.0000 O   0  0  0  0  0  0  0  0  0  0  0  0
   -6.0000   -5.1962    0.0000 N   0  0  0  0  0  0  0  0  0  0  0  0
   -7.5000   -5.1962    0.0000 C   0  0  0  0  0  0  0  0  0  0  0  0
   -8.2500   -6.4952    0.0000 C   0  0  0  0  0  0  0  0  0  0  0  0
   -9.7500   -6.4952    0.0000 O   0  0  0  0  0  0  0  0  0  0  0  0
  -10.5000   -7.7942    0.0000 C   0  0  0  0  0  0  0  0  0  0  0  0
  -12.0000   -7.7942    0.0000 C   0  0  0  0  0  0  0  0  0  0  0  0
  -12.8817   -9.0078    0.0000 C   0  0  0  0  0  0  0  0  0  0  0  0
  -14.3083   -8.5442    0.0000 N   0  0  0  0  0  0  0  0  0  0  0  0
  -14.3083   -7.0442    0.0000 N   0  0  0  0  0  0  0  0  0  0  0  0
  -12.8817   -6.5807    0.0000 N   0  0  0  0  0  0  0  0  0  0  0  0
  -12.4182   -5.1541    0.0000 C   0  0  0  0  0  0  0  0  0  0  0  0
  -13.4218   -4.0394    0.0000 C   0  0  0  0  0  0  0  0  0  0  0  0
  -12.9583   -2.6128    0.0000 C   0  0  0  0  0  0  0  0  0  0  0  0
  -13.9620   -1.4981    0.0000 C   0  0  0  0  0  0  0  0  0  0  0  0
  -13.4985   -0.0715    0.0000 C   0  0  0  0  0  0  0  0  0  0  0  0
  -12.0313    0.2404    0.0000 O   0  0  0  0  0  0  0  0  0  0  0  0
  -14.5022    1.0432    0.0000 N   0  0  0  0  0  0  0  0  0  0  0  0
  -14.0387    2.4698    0.0000 C   0  0  0  0  0  0  0  0  0  0  0  0
  -15.0424    3.5845    0.0000 C   0  0  0  0  0  0  0  0  0  0  0  0
  -14.5788    5.0111    0.0000 N   0  0  0  0  0  0  0  0  0  0  0  0
  -16.5096    3.2726    0.0000 O   0  0  0  0  0  0  0  0  0  0  0  0
   -8.2500   -3.8971    0.0000 C   0  0  0  0  0  0  0  0  0  0  0  0
   -9.7500   -3.8971    0.0000 O   0  0  0  0  0  0  0  0  0  0  0  0
   -7.5000   -2.5981    0.0000 N   0  0  0  0  0  0  0  0  0  0  0  0
   -8.2500   -1.2990    0.0000 C   0  0  0  0  0  0  0  0  0  0  0  0
   -7.5000    0.0000    0.0000 C   0  0  0  0  0  0  0  0  0  0  0  0
   -6.0000    0.0000    0.0000 C   0  0  0  0  0  0  0  0  0  0  0  0
   -5.2500   -1.2990    0.0000 C   0  0  0  0  0  0  0  0  0  0  0  0
   -5.2500    1.2990    0.0000 C   0  0  0  0  0  0  0  0  0  0  0  0
   -9.7500   -1.2990    0.0000 C   0  0  0  0  0  0  0  0  0  0  0  0
  -10.5000    0.0000    0.0000 N   0  0  0  0  0  0  0  0  0  0  0  0
  -10.5000   -2.5981    0.0000 O   0  0  0  0  0  0  0  0  0  0  0  0
  1  2  1  0
  2  3  2  0
  2  4  1  0
  4  5  1  0
  5  6  1  6
  6  7  1  0
  7  8  2  0
  8  9  1  0
  9 10  2  0
 10 11  1  0
 11 12  2  0
 12 13  1  0
 13 14  2  0
 14 15  1  0
 15 16  2  0
  5 17  1  0
 17 18  2  0
 17 19  1  0
 19 20  1  0
 20 21  1  1
 21 22  1  0
 22 23  1  0
 23 24  1  0
 24 25  2  0
 25 26  1  0
 26 27  2  0
 27 28  1  0
 28 29  1  0
 29 30  1  0
 30 31  1  0
 31 32  1  0
 32 33  1  0
 33 34  2  0
 33 35  1  0
 35 36  1  0
 36 37  1  0
 37 38  1  0
 37 39  2  0
 20 40  1  0
 40 41  2  0
 40 42  1  0
 42 43  1  0
 43 44  1  6
 44 45  1  0
 45 46  1  0
 45 47  1  0
 43 48  1  0
 48 49  1  0
 48 50  2  0
 16  7  1  0
 28 24  1  0
 16 11  1  0
M  END
>  <molecule_chembl_id>  (26) 
CHEMBL5094585

>  <canonical_smiles>  (26) 
CC(=O)N[C@@H](Cc1cccc2ccccc12)C(=O)N[C@@H](COCc1cnnn1CCCCC(=O)NCC(N)=O)C(=O)N[C@@H](CC(C)C)C(N)=O

>  <pchembl_value_mean>  (26) 
4.42

>  <inchi>  (26) 
InChI=1S/C34H47N9O7/c1-21(2)15-27(32(36)47)40-34(49)29(20-50-19-25-17-38-42-43(25)14-7-6-13-31(46)37-18-30(35)45)41-33(48)28(39-22(3)44)16-24-11-8-10-23-9-4-5-12-26(23)24/h4-5,8-12,17,21,27-29H,6-7,13-16,18-20H2,1-3H3,(H2,35,45)(H2,36,47)(H,37,46)(H,39,44)(H,40,49)(H,41,48)/t27-,28-,29-/m0/s1

$$$$

     RDKit          2D

 50 54  0  0  0  0  0  0  0  0999 V2000
    7.8700    3.9810    0.0000 C   0  0  0  0  0  0  0  0  0  0  0  0
    7.0066    5.2076    0.0000 C   0  0  0  0  0  0  0  0  0  0  0  0
    5.5126    5.0731    0.0000 N   0  0  0  0  0  0  0  0  0  0  0  0
    4.6492    6.2997    0.0000 C   0  0  0  0  0  0  0  0  0  0  0  0
    5.2797    7.6607    0.0000 O   0  0  0  0  0  0  0  0  0  0  0  0
    3.1552    6.1652    0.0000 C   0  0  0  0  0  0  0  0  0  0  0  0
    3.0655    4.6679    0.0000 C   0  0  0  0  0  0  0  0  0  0  0  0
    2.5385    3.2636    0.0000 O   0  0  0  0  0  0  0  0  0  0  0  0
    1.6209    2.0770    0.0000 C   0  0  0  0  0  0  0  0  0  0  0  0
    0.3943    1.2135    0.0000 C   0  0  0  0  0  0  0  0  0  0  0  0
    1.2760    0.0000    0.0000 C   0  0  0  0  0  0  0  0  0  0  0  0
    0.3943   -1.2135    0.0000 N   0  0  0  0  0  0  0  0  0  0  0  0
   -1.0323   -0.7500    0.0000 N   0  0  0  0  0  0  0  0  0  0  0  0
   -1.0323    0.7500    0.0000 N   0  0  0  0  0  0  0  0  0  0  0  0
   -2.5321    0.7276    0.0000 C   0  0  0  0  0  0  0  0  0  0  0  0
   -3.9719    1.1482    0.0000 C   0  0  0  0  0  0  0  0  0  0  0  0
   -5.2238    1.9745    0.0000 C   0  0  0  0  0  0  0  0  0  0  0  0
   -6.1765    3.1332    0.0000 C   0  0  0  0  0  0  0  0  0  0  0  0
   -6.7453    4.5211    0.0000 C   0  0  0  0  0  0  0  0  0  0  0  0
   -8.2025    4.1655    0.0000 O   0  0  0  0  0  0  0  0  0  0  0  0
   -6.8798    6.0151    0.0000 N   0  0  0  0  0  0  0  0  0  0  0  0
   -6.5679    7.4823    0.0000 C   0  0  0  0  0  0  0  0  0  0  0  0
   -5.8374    8.7924    0.0000 C   0  0  0  0  0  0  0  0  0  0  0  0
   -7.0240    9.7100    0.0000 O   0  0  0  0  0  0  0  0  0  0  0  0
   -4.7532    9.8290    0.0000 N   0  0  0  0  0  0  0  0  0  0  0  0
   -5.8059   10.8976    0.0000 C   0  0  0  0  0  0  0  0  0  0  0  0
   -5.1150   12.2290    0.0000 C   0  0  0  0  0  0  0  0  0  0  0  0
   -3.6352   11.9832    0.0000 C   0  0  0  0  0  0  0  0  0  0  0  0
   -3.4117   10.5000    0.0000 C   0  0  0  0  0  0  0  0  0  0  0  0
   -1.9319   10.7457    0.0000 C   0  0  0  0  0  0  0  0  0  0  0  0
   -1.9544   12.2455    0.0000 O   0  0  0  0  0  0  0  0  0  0  0  0
   -0.4455   10.5444    0.0000 N   0  0  0  0  0  0  0  0  0  0  0  0
    0.9155    9.9138    0.0000 C   0  0  0  0  0  0  0  0  0  0  0  0
    1.7419   11.1657    0.0000 C   0  0  0  0  0  0  0  0  0  0  0  0
    1.0709   12.5073    0.0000 C   0  0  0  0  0  0  0  0  0  0  0  0
   -0.4264   12.5970    0.0000 C   0  0  0  0  0  0  0  0  0  0  0  0
   -1.0974   13.9385    0.0000 C   0  0  0  0  0  0  0  0  0  0  0  0
   -0.2710   15.1904    0.0000 C   0  0  0  0  0  0  0  0  0  0  0  0
    1.2263   15.1007    0.0000 C   0  0  0  0  0  0  0  0  0  0  0  0
    2.0526   16.3525    0.0000 C   0  0  0  0  0  0  0  0  0  0  0  0
    3.5500   16.2628    0.0000 C   0  0  0  0  0  0  0  0  0  0  0  0
    4.2209   14.9213    0.0000 C   0  0  0  0  0  0  0  0  0  0  0  0
    3.3946   13.6694    0.0000 C   0  0  0  0  0  0  0  0  0  0  0  0
    1.8973   13.7591    0.0000 C   0  0  0  0  0  0  0  0  0  0  0  0
    2.0303    8.9101    0.0000 C   0  0  0  0  0  0  0  0  0  0  0  0
    3.1889    9.8628    0.0000 O   0  0  0  0  0  0  0  0  0  0  0  0
    2.7996    7.6225    0.0000 N   0  0  0  0  0  0  0  0  0  0  0  0
    7.6371    6.5686    0.0000 C   0  0  0  0  0  0  0  0  0  0  0  0
    9.1311    6.7031    0.0000 N   0  0  0  0  0  0  0  0  0  0  0  0
    6.7737    7.7952    0.0000 O   0  0  0  0  0  0  0  0  0  0  0  0
  2  1  1  6
  2  3  1  0
  3  4  1  0
  4  5  2  0
  6  4  1  6
  6  7  1  0
  7  8  1  0
  8  9  1  0
  9 10  1  0
 10 11  2  0
 11 12  1  0
 12 13  2  0
 13 14  1  0
 14 15  1  0
 15 16  1  0
 16 17  1  0
 17 18  1  0
 18 19  1  0
 19 20  2  0
 19 21  1  0
 21 22  1  0
 22 23  1  0
 23 24  2  0
 23 25  1  0
 25 26  1  0
 26 27  1  0
 27 28  1  0
 29 28  1  1
 29 30  1  0
 30 31  2  0
 30 32  1  0
 32 33  1  0
 33 34  1  1
 34 35  1  0
 35 36  2  0
 36 37  1  0
 37 38  2  0
 38 39  1  0
 39 40  2  0
 40 41  1  0
 41 42  2  0
 42 43  1  0
 43 44  2  0
 33 45  1  0
 45 46  2  0
 45 47  1  0
  2 48  1  0
 48 49  1  0
 48 50  2  0
 47  6  1  0
 14 10  1  0
 29 25  1  0
 44 35  1  0
 44 39  1  0
M  END
>  <molecule_chembl_id>  (27) 
CHEMBL5082436

>  <canonical_smiles>  (27) 
C[C@H](NC(=O)[C@@H]1COCc2cnnn2CCCCC(=O)NCC(=O)N2CCC[C@H]2C(=O)N[C@@H](Cc2cccc3ccccc23)C(=O)N1)C(N)=O

>  <pchembl_value_mean>  (27) 
4.43

>  <inchi>  (27) 
InChI=1S/C34H43N9O7/c1-21(31(35)46)38-33(48)27-20-50-19-24-17-37-41-43(24)15-5-4-13-29(44)36-18-30(45)42-14-7-12-28(42)34(49)39-26(32(47)40-27)16-23-10-6-9-22-8-2-3-11-25(22)23/h2-3,6,8-11,17,21,26-28H,4-5,7,12-16,18-20H2,1H3,(H2,35,46)(H,36,44)(H,38,48)(H,39,49)(H,40,47)/t21-,26-,27-,28-/m0/s1

$$$$

     RDKit          2D

 35 39  0  0  0  0  0  0  0  0999 V2000
    3.7500   -9.0933    0.0000 C   0  0  0  0  0  0  0  0  0  0  0  0
    3.0000   -7.7942    0.0000 C   0  0  0  0  0  0  0  0  0  0  0  0
    3.7500   -6.4952    0.0000 C   0  0  0  0  0  0  0  0  0  0  0  0
    5.2500   -6.4952    0.0000 O   0  0  0  0  0  0  0  0  0  0  0  0
    3.0000   -5.1962    0.0000 N   0  0  0  0  0  0  0  0  0  0  0  0
    1.5000   -5.1962    0.0000 C   0  0  0  0  0  0  0  0  0  0  0  0
    0.7500   -3.8971    0.0000 C   0  0  0  0  0  0  0  0  0  0  0  0
    1.5000   -2.5981    0.0000 N   0  0  0  0  0  0  0  0  0  0  0  0
    0.7500   -1.2990    0.0000 C   0  0  0  0  0  0  0  0  0  0  0  0
    1.5000    0.0000    0.0000 N   0  0  0  0  0  0  0  0  0  0  0  0
    0.7500    1.2990    0.0000 N   0  0  0  0  0  0  0  0  0  0  0  0
   -0.7500    1.2990    0.0000 C   0  0  0  0  0  0  0  0  0  0  0  0
   -1.5000    2.5981    0.0000 C   0  0  0  0  0  0  0  0  0  0  0  0
   -0.7500    3.8971    0.0000 C   0  0  0  0  0  0  0  0  0  0  0  0
   -1.5000    5.1962    0.0000 C   0  0  0  0  0  0  0  0  0  0  0  0
   -3.0000    5.1962    0.0000 C   0  0  0  0  0  0  0  0  0  0  0  0
   -3.7500    3.8971    0.0000 C   0  0  0  0  0  0  0  0  0  0  0  0
   -3.0000    2.5981    0.0000 C   0  0  0  0  0  0  0  0  0  0  0  0
   -1.5000    0.0000    0.0000 C   0  0  0  0  0  0  0  0  0  0  0  0
   -3.0000    0.0000    0.0000 C   0  0  0  0  0  0  0  0  0  0  0  0
   -3.7500   -1.2990    0.0000 C   0  0  0  0  0  0  0  0  0  0  0  0
   -5.2500   -1.2990    0.0000 C   0  0  0  0  0  0  0  0  0  0  0  0
   -6.0000    0.0000    0.0000 C   0  0  0  0  0  0  0  0  0  0  0  0
   -5.2500    1.2990    0.0000 O   0  0  0  0  0  0  0  0  0  0  0  0
   -7.5000    0.0000    0.0000 C   0  0  0  0  0  0  0  0  0  0  0  0
   -8.2500   -1.2990    0.0000 C   0  0  0  0  0  0  0  0  0  0  0  0
   -7.5000   -2.5981    0.0000 C   0  0  0  0  0  0  0  0  0  0  0  0
   -6.0000   -2.5981    0.0000 C   0  0  0  0  0  0  0  0  0  0  0  0
   -5.2500   -3.8971    0.0000 F   0  0  0  0  0  0  0  0  0  0  0  0
   -3.0000   -2.5981    0.0000 C   0  0  0  0  0  0  0  0  0  0  0  0
   -3.7500   -3.8971    0.0000 Cl  0  0  0  0  0  0  0  0  0  0  0  0
   -1.5000   -2.5981    0.0000 C   0  0  0  0  0  0  0  0  0  0  0  0
   -0.7500   -1.2990    0.0000 C   0  0  0  0  0  0  0  0  0  0  0  0
    3.0000   -2.5981    0.0000 C   0  0  0  0  0  0  0  0  0  0  0  0
    3.7500   -3.8971    0.0000 C   0  0  0  0  0  0  0  0  0  0  0  0
  1  2  2  0
  2  3  1  0
  3  4  2  0
  3  5  1  0
  5  6  1  0
  6  7  1  0
  7  8  1  0
  8  9  1  0
  9 10  2  0
 10 11  1  0
 11 12  2  0
 12 13  1  0
 13 14  2  0
 14 15  1  0
 15 16  2  0
 16 17  1  0
 17 18  2  0
 12 19  1  0
 19 20  2  0
 20 21  1  0
 21 22  1  0
 22 23  2  0
 23 24  1  0
 23 25  1  0
 25 26  2  0
 26 27  1  0
 27 28  2  0
 28 29  1  0
 21 30  2  0
 30 31  1  0
 30 32  1  0
 32 33  2  0
  8 34  1  0
 34 35  1  0
 35  5  1  0
 33  9  1  0
 18 13  1  0
 33 19  1  0
 28 22  1  0
M  END
>  <molecule_chembl_id>  (28) 
CHEMBL4460786

>  <canonical_smiles>  (28) 
C=CC(=O)N1CCN(c2nnc(-c3ccccc3)c3cc(-c4c(O)cccc4F)c(Cl)cc23)CC1

>  <pchembl_value_mean>  (28) 
4.47

>  <inchi>  (28) 
InChI=1S/C27H22ClFN4O2/c1-2-24(35)32-11-13-33(14-12-32)27-19-16-21(28)20(25-22(29)9-6-10-23(25)34)15-18(19)26(30-31-27)17-7-4-3-5-8-17/h2-10,15-16,34H,1,11-14H2

$$$$

     RDKit          2D

 52 56  0  0  0  0  0  0  0  0999 V2000
   10.2274    2.8889    0.0000 C   0  0  0  0  0  0  0  0  0  0  0  0
    9.3640    4.1154    0.0000 C   0  0  0  0  0  0  0  0  0  0  0  0
    9.9945    5.4765    0.0000 C   0  0  0  0  0  0  0  0  0  0  0  0
    7.8700    3.9810    0.0000 C   0  0  0  0  0  0  0  0  0  0  0  0
    7.0066    5.2076    0.0000 C   0  0  0  0  0  0  0  0  0  0  0  0
    5.5126    5.0731    0.0000 N   0  0  0  0  0  0  0  0  0  0  0  0
    4.6492    6.2997    0.0000 C   0  0  0  0  0  0  0  0  0  0  0  0
    5.2797    7.6607    0.0000 O   0  0  0  0  0  0  0  0  0  0  0  0
    3.1552    6.1652    0.0000 C   0  0  0  0  0  0  0  0  0  0  0  0
    3.0655    4.6679    0.0000 C   0  0  0  0  0  0  0  0  0  0  0  0
    2.5385    3.2636    0.0000 O   0  0  0  0  0  0  0  0  0  0  0  0
    1.6209    2.0770    0.0000 C   0  0  0  0  0  0  0  0  0  0  0  0
    0.3943    1.2135    0.0000 C   0  0  0  0  0  0  0  0  0  0  0  0
    1.2760    0.0000    0.0000 C   0  0  0  0  0  0  0  0  0  0  0  0
    0.3943   -1.2135    0.0000 N   0  0  0  0  0  0  0  0  0  0  0  0
   -1.0323   -0.7500    0.0000 N   0  0  0  0  0  0  0  0  0  0  0  0
   -1.0323    0.7500    0.0000 N   0  0  0  0  0  0  0  0  0  0  0  0
   -2.5321    0.7276    0.0000 C   0  0  0  0  0  0  0  0  0  0  0  0
   -3.9719    1.1482    0.0000 C   0  0  0  0  0  0  0  0  0  0  0  0
   -5.2238    1.9745    0.0000 C   0  0  0  0  0  0  0  0  0  0  0  0
   -6.1765    3.1332    0.0000 C   0  0  0  0  0  0  0  0  0  0  0  0
   -6.7453    4.5211    0.0000 C   0  0  0  0  0  0  0  0  0  0  0  0
   -8.2025    4.1655    0.0000 O   0  0  0  0  0  0  0  0  0  0  0  0
   -6.8798    6.0151    0.0000 N   0  0  0  0  0  0  0  0  0  0  0  0
   -6.5679    7.4823    0.0000 C   0  0  0  0  0  0  0  0  0  0  0  0
   -5.8374    8.7924    0.0000 C   0  0  0  0  0  0  0  0  0  0  0  0
   -7.0240    9.7100    0.0000 O   0  0  0  0  0  0  0  0  0  0  0  0
   -4.7532    9.8290    0.0000 N   0  0  0  0  0  0  0  0  0  0  0  0
   -5.4242   11.1706    0.0000 C   0  0  0  0  0  0  0  0  0  0  0  0
   -4.0826   11.8416    0.0000 C   0  0  0  0  0  0  0  0  0  0  0  0
   -3.4117   10.5000    0.0000 C   0  0  0  0  0  0  0  0  0  0  0  0
   -1.9319   10.7457    0.0000 C   0  0  0  0  0  0  0  0  0  0  0  0
   -1.9544   12.2455    0.0000 O   0  0  0  0  0  0  0  0  0  0  0  0
   -0.4455   10.5444    0.0000 N   0  0  0  0  0  0  0  0  0  0  0  0
    0.9155    9.9138    0.0000 C   0  0  0  0  0  0  0  0  0  0  0  0
    1.7419   11.1657    0.0000 C   0  0  0  0  0  0  0  0  0  0  0  0
    1.0709   12.5073    0.0000 C   0  0  0  0  0  0  0  0  0  0  0  0
   -0.4264   12.5970    0.0000 C   0  0  0  0  0  0  0  0  0  0  0  0
   -1.0974   13.9385    0.0000 C   0  0  0  0  0  0  0  0  0  0  0  0
   -0.2710   15.1904    0.0000 C   0  0  0  0  0  0  0  0  0  0  0  0
    1.2263   15.1007    0.0000 C   0  0  0  0  0  0  0  0  0  0  0  0
    2.0526   16.3525    0.0000 C   0  0  0  0  0  0  0  0  0  0  0  0
    3.5500   16.2628    0.0000 C   0  0  0  0  0  0  0  0  0  0  0  0
    4.2209   14.9213    0.0000 C   0  0  0  0  0  0  0  0  0  0  0  0
    3.3946   13.6694    0.0000 C   0  0  0  0  0  0  0  0  0  0  0  0
    1.8973   13.7591    0.0000 C   0  0  0  0  0  0  0  0  0  0  0  0
    2.0303    8.9101    0.0000 C   0  0  0  0  0  0  0  0  0  0  0  0
    3.1889    9.8628    0.0000 O   0  0  0  0  0  0  0  0  0  0  0  0
    2.7996    7.6225    0.0000 N   0  0  0  0  0  0  0  0  0  0  0  0
    7.6371    6.5686    0.0000 C   0  0  0  0  0  0  0  0  0  0  0  0
    9.1311    6.7031    0.0000 N   0  0  0  0  0  0  0  0  0  0  0  0
    6.7737    7.7952    0.0000 O   0  0  0  0  0  0  0  0  0  0  0  0
  1  2  1  0
  2  3  1  0
  2  4  1  0
  5  4  1  6
  5  6  1  0
  6  7  1  0
  7  8  2  0
  9  7  1  6
  9 10  1  0
 10 11  1  0
 11 12  1  0
 12 13  1  0
 13 14  2  0
 14 15  1  0
 15 16  2  0
 16 17  1  0
 17 18  1  0
 18 19  1  0
 19 20  1  0
 20 21  1  0
 21 22  1  0
 22 23  2  0
 22 24  1  0
 24 25  1  0
 25 26  1  0
 26 27  2  0
 26 28  1  0
 28 29  1  0
 29 30  1  0
 31 30  1  1
 31 32  1  0
 32 33  2  0
 32 34  1  0
 34 35  1  0
 35 36  1  1
 36 37  1  0
 37 38  2  0
 38 39  1  0
 39 40  2  0
 40 41  1  0
 41 42  2  0
 42 43  1  0
 43 44  2  0
 44 45  1  0
 45 46  2  0
 35 47  1  0
 47 48  2  0
 47 49  1  0
  5 50  1  0
 50 51  1  0
 50 52  2  0
 49  9  1  0
 17 13  1  0
 31 28  1  0
 46 37  1  0
 46 41  1  0
M  END
>  <molecule_chembl_id>  (29) 
CHEMBL5070479

>  <canonical_smiles>  (29) 
CC(C)C[C@H](NC(=O)[C@@H]1COCc2cnnn2CCCCC(=O)NCC(=O)N2CC[C@H]2C(=O)N[C@@H](Cc2cccc3ccccc23)C(=O)N1)C(N)=O

>  <pchembl_value_mean>  (29) 
4.495

>  <inchi>  (29) 
InChI=1S/C36H47N9O7/c1-22(2)16-27(33(37)48)40-35(50)29-21-52-20-25-18-39-43-45(25)14-6-5-12-31(46)38-19-32(47)44-15-13-30(44)36(51)41-28(34(49)42-29)17-24-10-7-9-23-8-3-4-11-26(23)24/h3-4,7-11,18,22,27-30H,5-6,12-17,19-21H2,1-2H3,(H2,37,48)(H,38,46)(H,40,50)(H,41,51)(H,42,49)/t27-,28-,29-,30-/m0/s1

$$$$

     RDKit          2D

 46 49  0  0  0  0  0  0  0  0999 V2000
   10.2274    2.8889    0.0000 C   0  0  0  0  0  0  0  0  0  0  0  0
    9.3640    4.1154    0.0000 C   0  0  0  0  0  0  0  0  0  0  0  0
    9.9945    5.4765    0.0000 C   0  0  0  0  0  0  0  0  0  0  0  0
    7.8700    3.9810    0.0000 C   0  0  0  0  0  0  0  0  0  0  0  0
    7.0066    5.2076    0.0000 C   0  0  0  0  0  0  0  0  0  0  0  0
    5.5126    5.0731    0.0000 N   0  0  0  0  0  0  0  0  0  0  0  0
    4.6492    6.2997    0.0000 C   0  0  0  0  0  0  0  0  0  0  0  0
    5.2797    7.6607    0.0000 O   0  0  0  0  0  0  0  0  0  0  0  0
    3.1552    6.1652    0.0000 C   0  0  0  0  0  0  0  0  0  0  0  0
    3.0655    4.6679    0.0000 C   0  0  0  0  0  0  0  0  0  0  0  0
    2.5385    3.2636    0.0000 O   0  0  0  0  0  0  0  0  0  0  0  0
    1.6209    2.0770    0.0000 C   0  0  0  0  0  0  0  0  0  0  0  0
    0.3943    1.2135    0.0000 C   0  0  0  0  0  0  0  0  0  0  0  0
    1.2760    0.0000    0.0000 C   0  0  0  0  0  0  0  0  0  0  0  0
    0.3943   -1.2135    0.0000 N   0  0  0  0  0  0  0  0  0  0  0  0
   -1.0323   -0.7500    0.0000 N   0  0  0  0  0  0  0  0  0  0  0  0
   -1.0323    0.7500    0.0000 N   0  0  0  0  0  0  0  0  0  0  0  0
   -2.5321    0.7276    0.0000 C   0  0  0  0  0  0  0  0  0  0  0  0
   -3.9719    1.1482    0.0000 C   0  0  0  0  0  0  0  0  0  0  0  0
   -5.2238    1.9745    0.0000 C   0  0  0  0  0  0  0  0  0  0  0  0
   -6.1765    3.1332    0.0000 C   0  0  0  0  0  0  0  0  0  0  0  0
   -6.7453    4.5211    0.0000 C   0  0  0  0  0  0  0  0  0  0  0  0
   -8.2025    4.1655    0.0000 O   0  0  0  0  0  0  0  0  0  0  0  0
   -6.8798    6.0151    0.0000 N   0  0  0  0  0  0  0  0  0  0  0  0
   -6.5679    7.4823    0.0000 C   0  0  0  0  0  0  0  0  0  0  0  0
   -5.8374    8.7924    0.0000 C   0  0  0  0  0  0  0  0  0  0  0  0
   -7.0240    9.7100    0.0000 O   0  0  0  0  0  0  0  0  0  0  0  0
   -4.7532    9.8290    0.0000 N   0  0  0  0  0  0  0  0  0  0  0  0
   -5.8059   10.8976    0.0000 C   0  0  0  0  0  0  0  0  0  0  0  0
   -5.1150   12.2290    0.0000 C   0  0  0  0  0  0  0  0  0  0  0  0
   -3.6352   11.9832    0.0000 C   0  0  0  0  0  0  0  0  0  0  0  0
   -3.4117   10.5000    0.0000 C   0  0  0  0  0  0  0  0  0  0  0  0
   -1.9319   10.7457    0.0000 C   0  0  0  0  0  0  0  0  0  0  0  0
   -1.9544   12.2455    0.0000 O   0  0  0  0  0  0  0  0  0  0  0  0
   -0.4455   10.5444    0.0000 N   0  0  0  0  0  0  0  0  0  0  0  0
    0.9155    9.9138    0.0000 C   0  0  0  0  0  0  0  0  0  0  0  0
    1.7419   11.1657    0.0000 C   0  0  0  0  0  0  0  0  0  0  0  0
    3.2392   11.0760    0.0000 C   0  0  0  0  0  0  0  0  0  0  0  0
    4.5808   11.7470    0.0000 C   0  0  0  0  0  0  0  0  0  0  0  0
    4.4911   10.2496    0.0000 C   0  0  0  0  0  0  0  0  0  0  0  0
    2.0303    8.9101    0.0000 C   0  0  0  0  0  0  0  0  0  0  0  0
    3.1889    9.8628    0.0000 O   0  0  0  0  0  0  0  0  0  0  0  0
    2.7996    7.6225    0.0000 N   0  0  0  0  0  0  0  0  0  0  0  0
    7.6371    6.5686    0.0000 C   0  0  0  0  0  0  0  0  0  0  0  0
    9.1311    6.7031    0.0000 N   0  0  0  0  0  0  0  0  0  0  0  0
    6.7737    7.7952    0.0000 O   0  0  0  0  0  0  0  0  0  0  0  0
  1  2  1  0
  2  3  1  0
  2  4  1  0
  5  4  1  6
  5  6  1  0
  6  7  1  0
  7  8  2  0
  9  7  1  6
  9 10  1  0
 10 11  1  0
 11 12  1  0
 12 13  1  0
 13 14  2  0
 14 15  1  0
 15 16  2  0
 16 17  1  0
 17 18  1  0
 18 19  1  0
 19 20  1  0
 20 21  1  0
 21 22  1  0
 22 23  2  0
 22 24  1  0
 24 25  1  0
 25 26  1  0
 26 27  2  0
 26 28  1  0
 28 29  1  0
 29 30  1  0
 30 31  1  0
 32 31  1  1
 32 33  1  0
 33 34  2  0
 33 35  1  0
 35 36  1  0
 36 37  1  1
 37 38  1  0
 38 39  1  0
 39 40  1  0
 36 41  1  0
 41 42  2  0
 41 43  1  0
  5 44  1  0
 44 45  1  0
 44 46  2  0
 43  9  1  0
 17 13  1  0
 32 28  1  0
 40 38  1  0
M  END
>  <molecule_chembl_id>  (30) 
CHEMBL5093360

>  <canonical_smiles>  (30) 
CC(C)C[C@H](NC(=O)[C@@H]1COCc2cnnn2CCCCC(=O)NCC(=O)N2CCC[C@H]2C(=O)N[C@@H](CC2CC2)C(=O)N1)C(N)=O

>  <pchembl_value_mean>  (30) 
4.495

>  <inchi>  (30) 
InChI=1S/C30H47N9O7/c1-18(2)12-21(27(31)42)34-29(44)23-17-46-16-20-14-33-37-39(20)11-4-3-7-25(40)32-15-26(41)38-10-5-6-24(38)30(45)35-22(28(43)36-23)13-19-8-9-19/h14,18-19,21-24H,3-13,15-17H2,1-2H3,(H2,31,42)(H,32,40)(H,34,44)(H,35,45)(H,36,43)/t21-,22-,23-,24-/m0/s1

$$$$

     RDKit          2D

 50 54  0  0  0  0  0  0  0  0999 V2000
   10.0896    4.4938    0.0000 C   0  0  0  0  0  0  0  0  0  0  0  0
    8.9076    3.5703    0.0000 C   0  0  0  0  0  0  0  0  0  0  0  0
    9.1163    2.0849    0.0000 C   0  0  0  0  0  0  0  0  0  0  0  0
    7.5168    4.1323    0.0000 C   0  0  0  0  0  0  0  0  0  0  0  0
    6.3348    3.2088    0.0000 C   0  0  0  0  0  0  0  0  0  0  0  0
    4.9440    3.7707    0.0000 N   0  0  0  0  0  0  0  0  0  0  0  0
    3.7620    2.8472    0.0000 C   0  0  0  0  0  0  0  0  0  0  0  0
    3.9707    1.3618    0.0000 O   0  0  0  0  0  0  0  0  0  0  0  0
    2.3712    3.4091    0.0000 C   0  0  0  0  0  0  0  0  0  0  0  0
    1.5763    2.1370    0.0000 C   0  0  0  0  0  0  0  0  0  0  0  0
    0.3943    1.2135    0.0000 N   0  0  0  0  0  0  0  0  0  0  0  0
    1.2760    0.0000    0.0000 N   0  0  0  0  0  0  0  0  0  0  0  0
    0.3943   -1.2135    0.0000 N   0  0  0  0  0  0  0  0  0  0  0  0
   -1.0323   -0.7500    0.0000 C   0  0  0  0  0  0  0  0  0  0  0  0
   -1.0323    0.7500    0.0000 C   0  0  0  0  0  0  0  0  0  0  0  0
   -2.5314    0.8023    0.0000 C   0  0  0  0  0  0  0  0  0  0  0  0
   -3.9221    1.3643    0.0000 C   0  0  0  0  0  0  0  0  0  0  0  0
   -5.0369    2.3680    0.0000 C   0  0  0  0  0  0  0  0  0  0  0  0
   -5.7411    3.6924    0.0000 C   0  0  0  0  0  0  0  0  0  0  0  0
   -7.1677    3.2289    0.0000 O   0  0  0  0  0  0  0  0  0  0  0  0
   -5.9498    5.1778    0.0000 N   0  0  0  0  0  0  0  0  0  0  0  0
   -5.6380    6.6450    0.0000 C   0  0  0  0  0  0  0  0  0  0  0  0
   -4.8431    7.9171    0.0000 C   0  0  0  0  0  0  0  0  0  0  0  0
   -5.9578    8.9208    0.0000 O   0  0  0  0  0  0  0  0  0  0  0  0
   -3.6611    8.8406    0.0000 N   0  0  0  0  0  0  0  0  0  0  0  0
   -4.5427   10.0541    0.0000 C   0  0  0  0  0  0  0  0  0  0  0  0
   -3.6611   11.2676    0.0000 C   0  0  0  0  0  0  0  0  0  0  0  0
   -2.2345   10.8041    0.0000 C   0  0  0  0  0  0  0  0  0  0  0  0
   -2.2345    9.3041    0.0000 C   0  0  0  0  0  0  0  0  0  0  0  0
   -0.7354    9.2517    0.0000 C   0  0  0  0  0  0  0  0  0  0  0  0
   -0.4235   10.7190    0.0000 O   0  0  0  0  0  0  0  0  0  0  0  0
    0.6554    8.6898    0.0000 N   0  0  0  0  0  0  0  0  0  0  0  0
    1.7701    7.6861    0.0000 C   0  0  0  0  0  0  0  0  0  0  0  0
    2.9521    8.6096    0.0000 C   0  0  0  0  0  0  0  0  0  0  0  0
    2.7434   10.0950    0.0000 C   0  0  0  0  0  0  0  0  0  0  0  0
    1.3526   10.6569    0.0000 C   0  0  0  0  0  0  0  0  0  0  0  0
    1.1438   12.1423    0.0000 C   0  0  0  0  0  0  0  0  0  0  0  0
    2.3258   13.0658    0.0000 C   0  0  0  0  0  0  0  0  0  0  0  0
    3.7166   12.5039    0.0000 C   0  0  0  0  0  0  0  0  0  0  0  0
    4.8986   13.4274    0.0000 C   0  0  0  0  0  0  0  0  0  0  0  0
    6.2894   12.8655    0.0000 C   0  0  0  0  0  0  0  0  0  0  0  0
    6.4982   11.3801    0.0000 C   0  0  0  0  0  0  0  0  0  0  0  0
    5.3161   10.4566    0.0000 C   0  0  0  0  0  0  0  0  0  0  0  0
    3.9254   11.0185    0.0000 C   0  0  0  0  0  0  0  0  0  0  0  0
    2.4743    6.3617    0.0000 C   0  0  0  0  0  0  0  0  0  0  0  0
    3.9009    6.8252    0.0000 O   0  0  0  0  0  0  0  0  0  0  0  0
    2.6831    4.8763    0.0000 N   0  0  0  0  0  0  0  0  0  0  0  0
    6.5435    1.7234    0.0000 C   0  0  0  0  0  0  0  0  0  0  0  0
    7.9343    1.1615    0.0000 N   0  0  0  0  0  0  0  0  0  0  0  0
    5.3615    0.7999    0.0000 O   0  0  0  0  0  0  0  0  0  0  0  0
  1  2  1  0
  2  3  1  0
  2  4  1  0
  5  4  1  1
  5  6  1  0
  6  7  1  0
  7  8  2  0
  9  7  1  1
  9 10  1  0
 10 11  1  0
 11 12  1  0
 12 13  2  0
 13 14  1  0
 14 15  2  0
 15 16  1  0
 16 17  1  0
 17 18  1  0
 18 19  1  0
 19 20  2  0
 19 21  1  0
 21 22  1  0
 22 23  1  0
 23 24  2  0
 23 25  1  0
 25 26  1  0
 26 27  1  0
 27 28  1  0
 29 28  1  1
 29 30  1  0
 30 31  2  0
 30 32  1  0
 32 33  1  0
 33 34  1  1
 34 35  1  0
 35 36  2  0
 36 37  1  0
 37 38  2  0
 38 39  1  0
 39 40  2  0
 40 41  1  0
 41 42  2  0
 42 43  1  0
 43 44  2  0
 33 45  1  0
 45 46  2  0
 45 47  1  0
  5 48  1  0
 48 49  1  0
 48 50  2  0
 47  9  1  0
 15 11  1  0
 29 25  1  0
 44 35  1  0
 44 39  1  0
M  END
>  <molecule_chembl_id>  (31) 
CHEMBL5084589

>  <canonical_smiles>  (31) 
CC(C)C[C@H](NC(=O)[C@H]1Cn2nncc2CCCC(=O)NCC(=O)N2CCC[C@H]2C(=O)N[C@@H](Cc2cccc3ccccc23)C(=O)N1)C(N)=O

>  <pchembl_value_mean>  (31) 
4.505

>  <inchi>  (31) 
InChI=1S/C35H45N9O6/c1-21(2)16-26(32(36)47)39-34(49)28-20-44-24(18-38-42-44)11-6-14-30(45)37-19-31(46)43-15-7-13-29(43)35(50)40-27(33(48)41-28)17-23-10-5-9-22-8-3-4-12-25(22)23/h3-5,8-10,12,18,21,26-29H,6-7,11,13-17,19-20H2,1-2H3,(H2,36,47)(H,37,45)(H,39,49)(H,40,50)(H,41,48)/t26-,27-,28+,29-/m0/s1

$$$$

     RDKit          2D

146151  0  0  0  0  0  0  0  0999 V2000
   -4.6742   22.1677    0.0000 C   0  0  0  0  0  0  0  0  0  0  0  0
   -3.3752   21.4177    0.0000 C   0  0  0  0  0  0  0  0  0  0  0  0
   -3.3752   19.9177    0.0000 C   0  0  0  0  0  0  0  0  0  0  0  0
   -2.0761   19.1677    0.0000 C   0  0  0  0  0  0  0  0  0  0  0  0
   -0.7058   19.7778    0.0000 C   0  0  0  0  0  0  0  0  0  0  0  0
    0.2979   18.6630    0.0000 C   0  0  0  0  0  0  0  0  0  0  0  0
   -0.4521   17.3640    0.0000 N   0  0  0  0  0  0  0  0  0  0  0  0
    0.9387   16.8021    0.0000 C   0  0  0  0  0  0  0  0  0  0  0  0
    2.2107   16.0072    0.0000 C   0  0  0  0  0  0  0  0  0  0  0  0
    3.1135   17.2052    0.0000 O   0  0  0  0  0  0  0  0  0  0  0  0
    3.3255   15.0035    0.0000 C   0  0  0  0  0  0  0  0  0  0  0  0
    4.4225   16.0265    0.0000 N   0  0  0  0  0  0  0  0  0  0  0  0
    5.8569   15.5880    0.0000 C   0  0  0  0  0  0  0  0  0  0  0  0
    6.1944   14.1264    0.0000 O   0  0  0  0  0  0  0  0  0  0  0  0
    6.9540   16.6110    0.0000 C   0  0  0  0  0  0  0  0  0  0  0  0
    8.3884   16.1724    0.0000 C   0  0  0  0  0  0  0  0  0  0  0  0
    9.4855   17.1954    0.0000 C   0  0  0  0  0  0  0  0  0  0  0  0
   10.9199   16.7568    0.0000 C   0  0  0  0  0  0  0  0  0  0  0  0
   12.0169   17.7798    0.0000 N   0  0  0  0  0  0  0  0  0  0  0  0
   13.4514   17.3413    0.0000 C   0  0  0  0  0  0  0  0  0  0  0  0
   13.7888   15.8797    0.0000 N   0  0  0  0  0  0  0  0  0  0  0  0
   14.5484   18.3643    0.0000 N   0  0  0  0  0  0  0  0  0  0  0  0
    6.6165   18.0725    0.0000 N   0  0  0  0  0  0  0  0  0  0  0  0
    7.7136   19.0955    0.0000 C   0  0  0  0  0  0  0  0  0  0  0  0
    9.1480   18.6570    0.0000 O   0  0  0  0  0  0  0  0  0  0  0  0
    7.3761   20.5571    0.0000 C   0  0  0  0  0  0  0  0  0  0  0  0
    8.4732   21.5801    0.0000 C   0  0  0  0  0  0  0  0  0  0  0  0
    8.1358   23.0416    0.0000 C   0  0  0  0  0  0  0  0  0  0  0  0
    9.2328   24.0646    0.0000 C   0  0  0  0  0  0  0  0  0  0  0  0
    8.8954   25.5262    0.0000 N   0  0  0  0  0  0  0  0  0  0  0  0
    9.9924   26.5492    0.0000 C   0  0  0  0  0  0  0  0  0  0  0  0
   11.4268   26.1106    0.0000 N   0  0  0  0  0  0  0  0  0  0  0  0
    9.6550   28.0107    0.0000 N   0  0  0  0  0  0  0  0  0  0  0  0
    5.9417   20.9956    0.0000 N   0  0  0  0  0  0  0  0  0  0  0  0
    5.6043   22.4572    0.0000 C   0  0  0  0  0  0  0  0  0  0  0  0
    4.1698   22.8957    0.0000 C   0  0  0  0  0  0  0  0  0  0  0  0
    6.7013   23.4802    0.0000 O   0  0  0  0  0  0  0  0  0  0  0  0
    4.2489   13.8215    0.0000 C   0  0  0  0  0  0  0  0  0  0  0  0
    4.9532   12.4971    0.0000 S   0  0  0  0  0  0  0  0  0  0  0  0
    5.4167   11.0705    0.0000 S   0  0  0  0  0  0  0  0  0  0  0  0
    5.6254    9.5851    0.0000 C   0  0  0  0  0  0  0  0  0  0  0  0
    5.5731    8.0860    0.0000 C   0  0  0  0  0  0  0  0  0  0  0  0
    7.0619    7.9032    0.0000 C   0  0  0  0  0  0  0  0  0  0  0  0
    7.9646    9.1012    0.0000 O   0  0  0  0  0  0  0  0  0  0  0  0
    7.6480    6.5225    0.0000 N   0  0  0  0  0  0  0  0  0  0  0  0
    9.1368    6.3396    0.0000 C   0  0  0  0  0  0  0  0  0  0  0  0
    9.7229    4.9589    0.0000 C   0  0  0  0  0  0  0  0  0  0  0  0
   11.2117    4.7761    0.0000 C   0  0  0  0  0  0  0  0  0  0  0  0
   11.7978    3.3953    0.0000 C   0  0  0  0  0  0  0  0  0  0  0  0
   13.2867    3.2125    0.0000 N   0  0  0  0  0  0  0  0  0  0  0  0
   13.8728    1.8318    0.0000 C   0  0  0  0  0  0  0  0  0  0  0  0
   12.9700    0.6338    0.0000 N   0  0  0  0  0  0  0  0  0  0  0  0
   15.3616    1.6490    0.0000 N   0  0  0  0  0  0  0  0  0  0  0  0
   10.0395    7.5376    0.0000 C   0  0  0  0  0  0  0  0  0  0  0  0
    9.4534    8.9184    0.0000 O   0  0  0  0  0  0  0  0  0  0  0  0
   11.5284    7.3548    0.0000 N   0  0  0  0  0  0  0  0  0  0  0  0
   12.4311    8.5527    0.0000 C   0  0  0  0  0  0  0  0  0  0  0  0
   13.9199    8.3699    0.0000 C   0  0  0  0  0  0  0  0  0  0  0  0
   14.8226    9.5679    0.0000 C   0  0  0  0  0  0  0  0  0  0  0  0
   16.3114    9.3851    0.0000 C   0  0  0  0  0  0  0  0  0  0  0  0
   17.2142   10.5830    0.0000 N   0  0  0  0  0  0  0  0  0  0  0  0
   18.7030   10.4002    0.0000 C   0  0  0  0  0  0  0  0  0  0  0  0
   19.2891    9.0195    0.0000 N   0  0  0  0  0  0  0  0  0  0  0  0
   19.6057   11.5982    0.0000 N   0  0  0  0  0  0  0  0  0  0  0  0
   11.8450    9.9335    0.0000 C   0  0  0  0  0  0  0  0  0  0  0  0
   12.7477   11.1315    0.0000 N   0  0  0  0  0  0  0  0  0  0  0  0
   10.3562   10.1163    0.0000 O   0  0  0  0  0  0  0  0  0  0  0  0
    5.2612    6.6188    0.0000 N   0  0  0  0  0  0  0  0  0  0  0  0
    4.6993    5.2280    0.0000 C   0  0  0  0  0  0  0  0  0  0  0  0
    6.0358    4.5470    0.0000 O   0  0  0  0  0  0  0  0  0  0  0  0
    3.9044    3.9559    0.0000 C   0  0  0  0  0  0  0  0  0  0  0  0
    5.1024    3.0532    0.0000 C   0  0  0  0  0  0  0  0  0  0  0  0
    4.9196    1.5644    0.0000 C   0  0  0  0  0  0  0  0  0  0  0  0
    6.1175    0.6617    0.0000 C   0  0  0  0  0  0  0  0  0  0  0  0
    5.9347   -0.8271    0.0000 C   0  0  0  0  0  0  0  0  0  0  0  0
    7.1327   -1.7299    0.0000 C   0  0  0  0  0  0  0  0  0  0  0  0
    2.9007    2.8412    0.0000 N   0  0  0  0  0  0  0  0  0  0  0  0
    1.7187    1.9177    0.0000 C   0  0  0  0  0  0  0  0  0  0  0  0
    2.5357    0.6597    0.0000 O   0  0  0  0  0  0  0  0  0  0  0  0
    0.3943    1.2135    0.0000 C   0  0  0  0  0  0  0  0  0  0  0  0
    1.2760    0.0000    0.0000 C   0  0  0  0  0  0  0  0  0  0  0  0
    0.3943   -1.2135    0.0000 C   0  0  0  0  0  0  0  0  0  0  0  0
   -1.0323   -0.7500    0.0000 C   0  0  0  0  0  0  0  0  0  0  0  0
   -1.0323    0.7500    0.0000 N   0  0  0  0  0  0  0  0  0  0  0  0
   -2.5177    0.5412    0.0000 C   0  0  0  0  0  0  0  0  0  0  0  0
   -2.4392   -0.9567    0.0000 O   0  0  0  0  0  0  0  0  0  0  0  0
   -4.0168    0.5936    0.0000 C   0  0  0  0  0  0  0  0  0  0  0  0
   -4.1996   -0.8952    0.0000 C   0  0  0  0  0  0  0  0  0  0  0  0
   -5.5803   -1.4813    0.0000 C   0  0  0  0  0  0  0  0  0  0  0  0
   -6.7783   -0.5786    0.0000 O   0  0  0  0  0  0  0  0  0  0  0  0
   -5.7631   -2.9701    0.0000 O   0  0  0  0  0  0  0  0  0  0  0  0
   -5.4840    0.9055    0.0000 N   0  0  0  0  0  0  0  0  0  0  0  0
   -6.8748    1.4674    0.0000 C   0  0  0  0  0  0  0  0  0  0  0  0
   -7.5558    0.1309    0.0000 O   0  0  0  0  0  0  0  0  0  0  0  0
   -8.1468    2.2622    0.0000 C   0  0  0  0  0  0  0  0  0  0  0  0
   -9.0496    1.0643    0.0000 C   0  0  0  0  0  0  0  0  0  0  0  0
  -10.5384    1.2471    0.0000 C   0  0  0  0  0  0  0  0  0  0  0  0
  -11.1245    2.6279    0.0000 C   0  0  0  0  0  0  0  0  0  0  0  0
  -12.6133    2.8107    0.0000 C   0  0  0  0  0  0  0  0  0  0  0  0
  -13.5160    1.6127    0.0000 C   0  0  0  0  0  0  0  0  0  0  0  0
  -15.0048    1.7955    0.0000 O   0  0  0  0  0  0  0  0  0  0  0  0
  -12.9299    0.2319    0.0000 C   0  0  0  0  0  0  0  0  0  0  0  0
  -11.4411    0.0491    0.0000 C   0  0  0  0  0  0  0  0  0  0  0  0
   -9.2616    3.2659    0.0000 N   0  0  0  0  0  0  0  0  0  0  0  0
  -10.1851    4.4480    0.0000 C   0  0  0  0  0  0  0  0  0  0  0  0
  -11.4431    3.6310    0.0000 O   0  0  0  0  0  0  0  0  0  0  0  0
  -10.8893    5.7724    0.0000 C   0  0  0  0  0  0  0  0  0  0  0  0
  -12.2700    5.1863    0.0000 C   0  0  0  0  0  0  0  0  0  0  0  0
  -13.4680    6.0890    0.0000 O   0  0  0  0  0  0  0  0  0  0  0  0
  -11.3528    7.1990    0.0000 N   0  0  0  0  0  0  0  0  0  0  0  0
  -11.5615    8.6844    0.0000 C   0  0  0  0  0  0  0  0  0  0  0  0
  -13.0595    8.6059    0.0000 O   0  0  0  0  0  0  0  0  0  0  0  0
  -11.5092   10.1835    0.0000 C   0  0  0  0  0  0  0  0  0  0  0  0
  -12.9980   10.3663    0.0000 C   0  0  0  0  0  0  0  0  0  0  0  0
  -13.5841   11.7470    0.0000 C   0  0  0  0  0  0  0  0  0  0  0  0
  -13.9007    9.1683    0.0000 C   0  0  0  0  0  0  0  0  0  0  0  0
  -15.3896    9.3511    0.0000 C   0  0  0  0  0  0  0  0  0  0  0  0
  -11.1973   11.6507    0.0000 N   0  0  0  0  0  0  0  0  0  0  0  0
  -10.6354   13.0414    0.0000 C   0  0  0  0  0  0  0  0  0  0  0  0
  -11.9719   13.7224    0.0000 O   0  0  0  0  0  0  0  0  0  0  0  0
   -9.8405   14.3135    0.0000 C   0  0  0  0  0  0  0  0  0  0  0  0
  -11.0385   15.2162    0.0000 C   0  0  0  0  0  0  0  0  0  0  0  0
  -10.8557   16.7051    0.0000 C   0  0  0  0  0  0  0  0  0  0  0  0
   -9.4749   17.2912    0.0000 C   0  0  0  0  0  0  0  0  0  0  0  0
   -9.2921   18.7800    0.0000 C   0  0  0  0  0  0  0  0  0  0  0  0
  -10.4901   19.6827    0.0000 C   0  0  0  0  0  0  0  0  0  0  0  0
  -10.3073   21.1715    0.0000 C   0  0  0  0  0  0  0  0  0  0  0  0
   -8.9265   21.7576    0.0000 C   0  0  0  0  0  0  0  0  0  0  0  0
   -8.7437   23.2464    0.0000 C   0  0  0  0  0  0  0  0  0  0  0  0
   -9.9417   24.1492    0.0000 C   0  0  0  0  0  0  0  0  0  0  0  0
  -11.3224   23.5631    0.0000 C   0  0  0  0  0  0  0  0  0  0  0  0
  -11.5052   22.0742    0.0000 C   0  0  0  0  0  0  0  0  0  0  0  0
  -11.8708   19.0966    0.0000 C   0  0  0  0  0  0  0  0  0  0  0  0
  -12.0536   17.6078    0.0000 C   0  0  0  0  0  0  0  0  0  0  0  0
   -8.8368   15.4282    0.0000 N   0  0  0  0  0  0  0  0  0  0  0  0
   -7.6548   16.3517    0.0000 C   0  0  0  0  0  0  0  0  0  0  0  0
   -8.4718   17.6097    0.0000 O   0  0  0  0  0  0  0  0  0  0  0  0
   -6.3304   17.0559    0.0000 C   0  0  0  0  0  0  0  0  0  0  0  0
   -6.9165   18.4367    0.0000 C   0  0  0  0  0  0  0  0  0  0  0  0
   -6.0138   19.6346    0.0000 C   0  0  0  0  0  0  0  0  0  0  0  0
   -6.5999   21.0154    0.0000 C   0  0  0  0  0  0  0  0  0  0  0  0
   -4.6738   19.4701    0.0000 C   0  0  0  0  0  0  0  0  0  0  0  0
   -4.9038   17.5195    0.0000 N   0  0  0  0  0  0  0  0  0  0  0  0
   -3.4184   17.7282    0.0000 C   0  0  0  0  0  0  0  0  0  0  0  0
   -3.8132   19.0192    0.0000 O   0  0  0  0  0  0  0  0  0  0  0  0
   -1.9193   17.6759    0.0000 C   0  0  0  0  0  0  0  0  0  0  0  0
  1  2  2  0
  2  3  1  0
  4  3  1  1
  4  5  1  0
  5  6  1  0
  6  7  1  0
  7  8  1  0
  8  9  1  0
  9 10  2  0
  9 11  1  0
 11 12  1  1
 12 13  1  0
 13 14  2  0
 13 15  1  0
 15 16  1  1
 16 17  1  0
 17 18  1  0
 18 19  1  0
 19 20  1  0
 20 21  2  0
 20 22  1  0
 15 23  1  0
 23 24  1  0
 24 25  2  0
 24 26  1  0
 26 27  1  1
 27 28  1  0
 28 29  1  0
 29 30  1  0
 30 31  1  0
 31 32  2  0
 31 33  1  0
 26 34  1  0
 34 35  1  0
 35 36  1  0
 35 37  2  0
 11 38  1  0
 38 39  1  0
 39 40  1  0
 40 41  1  0
 41 42  1  0
 42 43  1  1
 43 44  2  0
 43 45  1  0
 45 46  1  0
 46 47  1  6
 47 48  1  0
 48 49  1  0
 49 50  1  0
 50 51  1  0
 51 52  2  0
 51 53  1  0
 46 54  1  0
 54 55  2  0
 54 56  1  0
 56 57  1  0
 57 58  1  6
 58 59  1  0
 59 60  1  0
 60 61  1  0
 61 62  1  0
 62 63  2  0
 62 64  1  0
 57 65  1  0
 65 66  1  0
 65 67  2  0
 42 68  1  0
 68 69  1  0
 69 70  2  0
 69 71  1  0
 71 72  1  6
 72 73  1  0
 73 74  1  0
 74 75  1  0
 75 76  1  0
 71 77  1  0
 77 78  1  0
 78 79  2  0
 78 80  1  0
 80 81  1  6
 81 82  1  0
 82 83  1  0
 83 84  1  0
 84 85  1  0
 85 86  2  0
 85 87  1  0
 87 88  1  6
 88 89  1  0
 89 90  2  0
 89 91  1  0
 87 92  1  0
 92 93  1  0
 93 94  2  0
 93 95  1  0
 95 96  1  6
 96 97  1  0
 97 98  2  0
 98 99  1  0
 99100  2  0
100101  1  0
100102  1  0
102103  2  0
 95104  1  0
104105  1  0
105106  2  0
105107  1  0
107108  1  6
108109  1  0
107110  1  0
110111  1  0
111112  2  0
111113  1  0
113114  1  0
114115  1  6
114116  1  0
116117  1  0
113118  1  6
118119  1  0
119120  2  0
119121  1  0
121122  1  6
122123  1  0
123124  2  0
124125  1  0
125126  2  0
126127  1  0
127128  2  0
128129  1  0
129130  2  0
130131  1  0
131132  2  0
126133  1  0
133134  2  0
121135  1  0
135136  1  0
136137  2  0
136138  1  0
138139  1  6
139140  1  0
140141  1  0
140142  1  0
138143  1  0
143144  1  0
144145  2  0
146144  1  6
146  4  1  0
146  7  1  0
 84 80  1  0
103 97  1  0
134123  1  0
132127  1  0
M  END
>  <molecule_chembl_id>  (32) 
CHEMBL5177687

>  <canonical_smiles>  (32) 
C=CC[C@H]1CCN2CC(=O)[C@@H](NC(=O)[C@H](CCCNC(=N)N)NC(=O)[C@H](CCCNC(=N)N)NC(C)=O)CSSC[C@@H](C(=O)N[C@@H](CCCNC(=N)N)C(=O)N[C@@H](CCCNC(=N)N)C(N)=O)NC(=O)[C@H](CCCCC)NC(=O)[C@@H]3CCCN3C(=O)[C@H](CC(=O)O)NC(=O)[C@H](Cc3ccc(O)cc3)NC(=O)[C@H](CO)NC(=O)[C@H]([C@@H](C)CC)NC(=O)[C@H](Cc3ccc(-c4ccccc4)cc3)NC(=O)[C@H](CC(C)C)NC(=O)[C@H]12

>  <pchembl_value_mean>  (32) 
4.52

>  <inchi>  (32) 
InChI=1S/C96H148N28O20S2/c1-8-11-13-24-64-83(135)121-73(88(140)113-65(27-18-41-108-95(102)103)81(133)111-62(79(97)131)25-16-39-106-93(98)99)52-146-145-51-72(120-82(134)66(28-19-42-109-96(104)105)112-80(132)63(110-55(7)126)26-17-40-107-94(100)101)75(128)49-123-44-38-60(21-9-2)78(123)91(143)117-67(45-53(4)5)84(136)115-69(46-56-30-34-59(35-31-56)58-22-14-12-15-23-58)86(138)122-77(54(6)10-3)90(142)119-71(50-125)87(139)116-68(47-57-32-36-61(127)37-33-57)85(137)118-70(48-76(129)130)92(144)124-43-20-29-74(124)89(141)114-64/h9,12,14-15,22-23,30-37,53-54,60,62-74,77-78,125,127H,2,8,10-11,13,16-21,24-29,38-52H2,1,3-7H3,(H2,97,131)(H,110,126)(H,111,133)(H,112,132)(H,113,140)(H,114,141)(H,115,136)(H,116,139)(H,117,143)(H,118,137)(H,119,142)(H,120,134)(H,121,135)(H,122,138)(H,129,130)(H4,98,99,106)(H4,100,101,107)(H4,102,103,108)(H4,104,105,109)/t54-,60-,62-,63-,64-,65-,66-,67-,68-,69-,70-,71-,72-,73-,74-,77-,78-/m0/s1

$$$$

     RDKit          2D

144149  0  0  0  0  0  0  0  0999 V2000
   -4.6742   22.1677    0.0000 C   0  0  0  0  0  0  0  0  0  0  0  0
   -3.3752   21.4177    0.0000 C   0  0  0  0  0  0  0  0  0  0  0  0
   -3.3752   19.9177    0.0000 C   0  0  0  0  0  0  0  0  0  0  0  0
   -2.0761   19.1677    0.0000 C   0  0  0  0  0  0  0  0  0  0  0  0
   -0.7058   19.7778    0.0000 C   0  0  0  0  0  0  0  0  0  0  0  0
    0.2979   18.6630    0.0000 C   0  0  0  0  0  0  0  0  0  0  0  0
   -0.4521   17.3640    0.0000 N   0  0  0  0  0  0  0  0  0  0  0  0
    0.9387   16.8021    0.0000 C   0  0  0  0  0  0  0  0  0  0  0  0
    2.2107   16.0072    0.0000 C   0  0  0  0  0  0  0  0  0  0  0  0
    3.1135   17.2052    0.0000 O   0  0  0  0  0  0  0  0  0  0  0  0
    3.3255   15.0035    0.0000 C   0  0  0  0  0  0  0  0  0  0  0  0
    4.4225   16.0265    0.0000 N   0  0  0  0  0  0  0  0  0  0  0  0
    5.8569   15.5880    0.0000 C   0  0  0  0  0  0  0  0  0  0  0  0
    6.1944   14.1264    0.0000 O   0  0  0  0  0  0  0  0  0  0  0  0
    6.9540   16.6110    0.0000 C   0  0  0  0  0  0  0  0  0  0  0  0
    8.3884   16.1724    0.0000 C   0  0  0  0  0  0  0  0  0  0  0  0
    9.4855   17.1954    0.0000 C   0  0  0  0  0  0  0  0  0  0  0  0
   10.9199   16.7568    0.0000 C   0  0  0  0  0  0  0  0  0  0  0  0
   12.0169   17.7798    0.0000 N   0  0  0  0  0  0  0  0  0  0  0  0
   13.4514   17.3413    0.0000 C   0  0  0  0  0  0  0  0  0  0  0  0
   13.7888   15.8797    0.0000 N   0  0  0  0  0  0  0  0  0  0  0  0
   14.5484   18.3643    0.0000 N   0  0  0  0  0  0  0  0  0  0  0  0
    6.6165   18.0725    0.0000 N   0  0  0  0  0  0  0  0  0  0  0  0
    7.7136   19.0955    0.0000 C   0  0  0  0  0  0  0  0  0  0  0  0
    9.1480   18.6570    0.0000 O   0  0  0  0  0  0  0  0  0  0  0  0
    7.3761   20.5571    0.0000 C   0  0  0  0  0  0  0  0  0  0  0  0
    8.4732   21.5801    0.0000 C   0  0  0  0  0  0  0  0  0  0  0  0
    8.1358   23.0416    0.0000 C   0  0  0  0  0  0  0  0  0  0  0  0
    9.2328   24.0646    0.0000 C   0  0  0  0  0  0  0  0  0  0  0  0
    8.8954   25.5262    0.0000 N   0  0  0  0  0  0  0  0  0  0  0  0
    9.9924   26.5492    0.0000 C   0  0  0  0  0  0  0  0  0  0  0  0
   11.4268   26.1106    0.0000 N   0  0  0  0  0  0  0  0  0  0  0  0
    9.6550   28.0107    0.0000 N   0  0  0  0  0  0  0  0  0  0  0  0
    5.9417   20.9956    0.0000 N   0  0  0  0  0  0  0  0  0  0  0  0
    5.6043   22.4572    0.0000 C   0  0  0  0  0  0  0  0  0  0  0  0
    4.1698   22.8957    0.0000 C   0  0  0  0  0  0  0  0  0  0  0  0
    6.7013   23.4802    0.0000 O   0  0  0  0  0  0  0  0  0  0  0  0
    4.2489   13.8215    0.0000 C   0  0  0  0  0  0  0  0  0  0  0  0
    4.9532   12.4971    0.0000 S   0  0  0  0  0  0  0  0  0  0  0  0
    5.4167   11.0705    0.0000 S   0  0  0  0  0  0  0  0  0  0  0  0
    5.6254    9.5851    0.0000 C   0  0  0  0  0  0  0  0  0  0  0  0
    5.5731    8.0860    0.0000 C   0  0  0  0  0  0  0  0  0  0  0  0
    7.0619    7.9032    0.0000 C   0  0  0  0  0  0  0  0  0  0  0  0
    7.9646    9.1012    0.0000 O   0  0  0  0  0  0  0  0  0  0  0  0
    7.6480    6.5225    0.0000 N   0  0  0  0  0  0  0  0  0  0  0  0
    9.1368    6.3396    0.0000 C   0  0  0  0  0  0  0  0  0  0  0  0
    9.7229    4.9589    0.0000 C   0  0  0  0  0  0  0  0  0  0  0  0
   11.2117    4.7761    0.0000 C   0  0  0  0  0  0  0  0  0  0  0  0
   11.7978    3.3953    0.0000 C   0  0  0  0  0  0  0  0  0  0  0  0
   13.2867    3.2125    0.0000 N   0  0  0  0  0  0  0  0  0  0  0  0
   13.8728    1.8318    0.0000 C   0  0  0  0  0  0  0  0  0  0  0  0
   12.9700    0.6338    0.0000 N   0  0  0  0  0  0  0  0  0  0  0  0
   15.3616    1.6490    0.0000 N   0  0  0  0  0  0  0  0  0  0  0  0
   10.0395    7.5376    0.0000 C   0  0  0  0  0  0  0  0  0  0  0  0
    9.4534    8.9184    0.0000 O   0  0  0  0  0  0  0  0  0  0  0  0
   11.5284    7.3548    0.0000 N   0  0  0  0  0  0  0  0  0  0  0  0
   12.4311    8.5527    0.0000 C   0  0  0  0  0  0  0  0  0  0  0  0
   13.9199    8.3699    0.0000 C   0  0  0  0  0  0  0  0  0  0  0  0
   14.8226    9.5679    0.0000 C   0  0  0  0  0  0  0  0  0  0  0  0
   16.3114    9.3851    0.0000 C   0  0  0  0  0  0  0  0  0  0  0  0
   17.2142   10.5830    0.0000 N   0  0  0  0  0  0  0  0  0  0  0  0
   18.7030   10.4002    0.0000 C   0  0  0  0  0  0  0  0  0  0  0  0
   19.2891    9.0195    0.0000 N   0  0  0  0  0  0  0  0  0  0  0  0
   19.6057   11.5982    0.0000 N   0  0  0  0  0  0  0  0  0  0  0  0
   11.8450    9.9335    0.0000 C   0  0  0  0  0  0  0  0  0  0  0  0
   12.7477   11.1315    0.0000 N   0  0  0  0  0  0  0  0  0  0  0  0
   10.3562   10.1163    0.0000 O   0  0  0  0  0  0  0  0  0  0  0  0
    5.2612    6.6188    0.0000 N   0  0  0  0  0  0  0  0  0  0  0  0
    4.6993    5.2280    0.0000 C   0  0  0  0  0  0  0  0  0  0  0  0
    6.0358    4.5470    0.0000 O   0  0  0  0  0  0  0  0  0  0  0  0
    3.9044    3.9559    0.0000 C   0  0  0  0  0  0  0  0  0  0  0  0
    5.1024    3.0532    0.0000 C   0  0  0  0  0  0  0  0  0  0  0  0
    4.9196    1.5644    0.0000 C   0  0  0  0  0  0  0  0  0  0  0  0
    6.4831    3.6393    0.0000 C   0  0  0  0  0  0  0  0  0  0  0  0
    2.9007    2.8412    0.0000 N   0  0  0  0  0  0  0  0  0  0  0  0
    1.7187    1.9177    0.0000 C   0  0  0  0  0  0  0  0  0  0  0  0
    2.5357    0.6597    0.0000 O   0  0  0  0  0  0  0  0  0  0  0  0
    0.3943    1.2135    0.0000 C   0  0  0  0  0  0  0  0  0  0  0  0
    1.2760    0.0000    0.0000 C   0  0  0  0  0  0  0  0  0  0  0  0
    0.3943   -1.2135    0.0000 C   0  0  0  0  0  0  0  0  0  0  0  0
   -1.0323   -0.7500    0.0000 C   0  0  0  0  0  0  0  0  0  0  0  0
   -1.0323    0.7500    0.0000 N   0  0  0  0  0  0  0  0  0  0  0  0
   -2.5177    0.5412    0.0000 C   0  0  0  0  0  0  0  0  0  0  0  0
   -2.4392   -0.9567    0.0000 O   0  0  0  0  0  0  0  0  0  0  0  0
   -4.0168    0.5936    0.0000 C   0  0  0  0  0  0  0  0  0  0  0  0
   -4.1996   -0.8952    0.0000 C   0  0  0  0  0  0  0  0  0  0  0  0
   -5.5803   -1.4813    0.0000 C   0  0  0  0  0  0  0  0  0  0  0  0
   -6.7783   -0.5786    0.0000 O   0  0  0  0  0  0  0  0  0  0  0  0
   -5.7631   -2.9701    0.0000 O   0  0  0  0  0  0  0  0  0  0  0  0
   -5.4840    0.9055    0.0000 N   0  0  0  0  0  0  0  0  0  0  0  0
   -6.8748    1.4674    0.0000 C   0  0  0  0  0  0  0  0  0  0  0  0
   -7.5558    0.1309    0.0000 O   0  0  0  0  0  0  0  0  0  0  0  0
   -8.1468    2.2622    0.0000 C   0  0  0  0  0  0  0  0  0  0  0  0
   -9.0496    1.0643    0.0000 C   0  0  0  0  0  0  0  0  0  0  0  0
  -10.5384    1.2471    0.0000 C   0  0  0  0  0  0  0  0  0  0  0  0
  -11.1245    2.6279    0.0000 C   0  0  0  0  0  0  0  0  0  0  0  0
  -12.6133    2.8107    0.0000 C   0  0  0  0  0  0  0  0  0  0  0  0
  -13.5160    1.6127    0.0000 C   0  0  0  0  0  0  0  0  0  0  0  0
  -15.0048    1.7955    0.0000 O   0  0  0  0  0  0  0  0  0  0  0  0
  -12.9299    0.2319    0.0000 C   0  0  0  0  0  0  0  0  0  0  0  0
  -11.4411    0.0491    0.0000 C   0  0  0  0  0  0  0  0  0  0  0  0
   -9.2616    3.2659    0.0000 N   0  0  0  0  0  0  0  0  0  0  0  0
  -10.1851    4.4480    0.0000 C   0  0  0  0  0  0  0  0  0  0  0  0
  -11.4431    3.6310    0.0000 O   0  0  0  0  0  0  0  0  0  0  0  0
  -10.8893    5.7724    0.0000 C   0  0  0  0  0  0  0  0  0  0  0  0
  -12.2700    5.1863    0.0000 C   0  0  0  0  0  0  0  0  0  0  0  0
  -13.4680    6.0890    0.0000 O   0  0  0  0  0  0  0  0  0  0  0  0
  -11.3528    7.1990    0.0000 N   0  0  0  0  0  0  0  0  0  0  0  0
  -11.5615    8.6844    0.0000 C   0  0  0  0  0  0  0  0  0  0  0  0
  -13.0595    8.6059    0.0000 O   0  0  0  0  0  0  0  0  0  0  0  0
  -11.5092   10.1835    0.0000 C   0  0  0  0  0  0  0  0  0  0  0  0
  -12.9980   10.3663    0.0000 C   0  0  0  0  0  0  0  0  0  0  0  0
  -13.5841   11.7470    0.0000 C   0  0  0  0  0  0  0  0  0  0  0  0
  -13.9007    9.1683    0.0000 C   0  0  0  0  0  0  0  0  0  0  0  0
  -15.3896    9.3511    0.0000 C   0  0  0  0  0  0  0  0  0  0  0  0
  -11.1973   11.6507    0.0000 N   0  0  0  0  0  0  0  0  0  0  0  0
  -10.6354   13.0414    0.0000 C   0  0  0  0  0  0  0  0  0  0  0  0
  -11.9719   13.7224    0.0000 O   0  0  0  0  0  0  0  0  0  0  0  0
   -9.8405   14.3135    0.0000 C   0  0  0  0  0  0  0  0  0  0  0  0
  -11.0385   15.2162    0.0000 C   0  0  0  0  0  0  0  0  0  0  0  0
  -10.8557   16.7051    0.0000 C   0  0  0  0  0  0  0  0  0  0  0  0
   -9.4749   17.2912    0.0000 C   0  0  0  0  0  0  0  0  0  0  0  0
   -9.2921   18.7800    0.0000 C   0  0  0  0  0  0  0  0  0  0  0  0
  -10.4901   19.6827    0.0000 C   0  0  0  0  0  0  0  0  0  0  0  0
  -10.3073   21.1715    0.0000 C   0  0  0  0  0  0  0  0  0  0  0  0
   -8.9265   21.7576    0.0000 C   0  0  0  0  0  0  0  0  0  0  0  0
   -8.7437   23.2464    0.0000 C   0  0  0  0  0  0  0  0  0  0  0  0
   -9.9417   24.1492    0.0000 C   0  0  0  0  0  0  0  0  0  0  0  0
  -11.3224   23.5631    0.0000 C   0  0  0  0  0  0  0  0  0  0  0  0
  -11.5052   22.0742    0.0000 C   0  0  0  0  0  0  0  0  0  0  0  0
  -11.8708   19.0966    0.0000 C   0  0  0  0  0  0  0  0  0  0  0  0
  -12.0536   17.6078    0.0000 C   0  0  0  0  0  0  0  0  0  0  0  0
   -8.8368   15.4282    0.0000 N   0  0  0  0  0  0  0  0  0  0  0  0
   -7.6548   16.3517    0.0000 C   0  0  0  0  0  0  0  0  0  0  0  0
   -8.4718   17.6097    0.0000 O   0  0  0  0  0  0  0  0  0  0  0  0
   -6.3304   17.0559    0.0000 C   0  0  0  0  0  0  0  0  0  0  0  0
   -6.9165   18.4367    0.0000 C   0  0  0  0  0  0  0  0  0  0  0  0
   -6.0138   19.6346    0.0000 C   0  0  0  0  0  0  0  0  0  0  0  0
   -6.5999   21.0154    0.0000 C   0  0  0  0  0  0  0  0  0  0  0  0
   -4.6738   19.4701    0.0000 C   0  0  0  0  0  0  0  0  0  0  0  0
   -4.9038   17.5195    0.0000 N   0  0  0  0  0  0  0  0  0  0  0  0
   -3.4184   17.7282    0.0000 C   0  0  0  0  0  0  0  0  0  0  0  0
   -3.8132   19.0192    0.0000 O   0  0  0  0  0  0  0  0  0  0  0  0
   -1.9193   17.6759    0.0000 C   0  0  0  0  0  0  0  0  0  0  0  0
  1  2  2  0
  2  3  1  0
  4  3  1  1
  4  5  1  0
  5  6  1  0
  6  7  1  0
  7  8  1  0
  8  9  1  0
  9 10  2  0
  9 11  1  0
 11 12  1  1
 12 13  1  0
 13 14  2  0
 13 15  1  0
 15 16  1  1
 16 17  1  0
 17 18  1  0
 18 19  1  0
 19 20  1  0
 20 21  2  0
 20 22  1  0
 15 23  1  0
 23 24  1  0
 24 25  2  0
 24 26  1  0
 26 27  1  1
 27 28  1  0
 28 29  1  0
 29 30  1  0
 30 31  1  0
 31 32  2  0
 31 33  1  0
 26 34  1  0
 34 35  1  0
 35 36  1  0
 35 37  2  0
 11 38  1  0
 38 39  1  0
 39 40  1  0
 40 41  1  0
 41 42  1  0
 42 43  1  1
 43 44  2  0
 43 45  1  0
 45 46  1  0
 46 47  1  6
 47 48  1  0
 48 49  1  0
 49 50  1  0
 50 51  1  0
 51 52  2  0
 51 53  1  0
 46 54  1  0
 54 55  2  0
 54 56  1  0
 56 57  1  0
 57 58  1  6
 58 59  1  0
 59 60  1  0
 60 61  1  0
 61 62  1  0
 62 63  2  0
 62 64  1  0
 57 65  1  0
 65 66  1  0
 65 67  2  0
 42 68  1  0
 68 69  1  0
 69 70  2  0
 69 71  1  0
 71 72  1  6
 72 73  1  0
 72 74  1  0
 71 75  1  0
 75 76  1  0
 76 77  2  0
 76 78  1  0
 78 79  1  6
 79 80  1  0
 80 81  1  0
 81 82  1  0
 82 83  1  0
 83 84  2  0
 83 85  1  0
 85 86  1  6
 86 87  1  0
 87 88  2  0
 87 89  1  0
 85 90  1  0
 90 91  1  0
 91 92  2  0
 91 93  1  0
 93 94  1  6
 94 95  1  0
 95 96  2  0
 96 97  1  0
 97 98  2  0
 98 99  1  0
 98100  1  0
100101  2  0
 93102  1  0
102103  1  0
103104  2  0
103105  1  0
105106  1  6
106107  1  0
105108  1  0
108109  1  0
109110  2  0
109111  1  0
111112  1  0
112113  1  6
112114  1  0
114115  1  0
111116  1  6
116117  1  0
117118  2  0
117119  1  0
119120  1  6
120121  1  0
121122  2  0
122123  1  0
123124  2  0
124125  1  0
125126  2  0
126127  1  0
127128  2  0
128129  1  0
129130  2  0
124131  1  0
131132  2  0
119133  1  0
133134  1  0
134135  2  0
134136  1  0
136137  1  6
137138  1  0
138139  1  0
138140  1  0
136141  1  0
141142  1  0
142143  2  0
144142  1  6
144  4  1  0
144  7  1  0
 82 78  1  0
101 95  1  0
132121  1  0
130125  1  0
M  END
>  <molecule_chembl_id>  (33) 
CHEMBL5189930

>  <canonical_smiles>  (33) 
C=CC[C@H]1CCN2CC(=O)[C@@H](NC(=O)[C@H](CCCNC(=N)N)NC(=O)[C@H](CCCNC(=N)N)NC(C)=O)CSSC[C@@H](C(=O)N[C@@H](CCCNC(=N)N)C(=O)N[C@@H](CCCNC(=N)N)C(N)=O)NC(=O)[C@H](C(C)C)NC(=O)[C@@H]3CCCN3C(=O)[C@H](CC(=O)O)NC(=O)[C@H](Cc3ccc(O)cc3)NC(=O)[C@H](CO)NC(=O)[C@H]([C@@H](C)CC)NC(=O)[C@H](Cc3ccc(-c4ccccc4)cc3)NC(=O)[C@H](CC(C)C)NC(=O)[C@H]12

>  <pchembl_value_mean>  (33) 
4.55

>  <inchi>  (33) 
InChI=1S/C94H144N28O20S2/c1-9-19-58-35-41-121-46-72(126)69(117-80(132)63(25-17-39-107-94(102)103)110-78(130)61(108-53(8)124)23-15-37-105-92(98)99)48-143-144-49-70(85(137)111-62(24-16-38-106-93(100)101)79(131)109-60(77(95)129)22-14-36-104-91(96)97)118-87(139)74(51(5)6)119-86(138)71-26-18-40-122(71)90(142)67(45-73(127)128)115-82(134)65(44-55-29-33-59(125)34-30-55)113-84(136)68(47-123)116-88(140)75(52(7)10-2)120-83(135)66(112-81(133)64(42-50(3)4)114-89(141)76(58)121)43-54-27-31-57(32-28-54)56-20-12-11-13-21-56/h9,11-13,20-21,27-34,50-52,58,60-71,74-76,123,125H,1,10,14-19,22-26,35-49H2,2-8H3,(H2,95,129)(H,108,124)(H,109,131)(H,110,130)(H,111,137)(H,112,133)(H,113,136)(H,114,141)(H,115,134)(H,116,140)(H,117,132)(H,118,139)(H,119,138)(H,120,135)(H,127,128)(H4,96,97,104)(H4,98,99,105)(H4,100,101,106)(H4,102,103,107)/t52-,58-,60-,61-,62-,63-,64-,65-,66-,67-,68-,69-,70-,71-,74-,75-,76-/m0/s1

$$$$

     RDKit          2D

 54 58  0  0  0  0  0  0  0  0999 V2000
   10.1417    1.9409    0.0000 C   0  0  0  0  0  0  0  0  0  0  0  0
    9.4275    3.2599    0.0000 C   0  0  0  0  0  0  0  0  0  0  0  0
   10.2127    4.5380    0.0000 C   0  0  0  0  0  0  0  0  0  0  0  0
    7.9281    3.3009    0.0000 C   0  0  0  0  0  0  0  0  0  0  0  0
    7.2138    4.6199    0.0000 C   0  0  0  0  0  0  0  0  0  0  0  0
    5.7144    4.6609    0.0000 N   0  0  0  0  0  0  0  0  0  0  0  0
    5.0001    5.9799    0.0000 C   0  0  0  0  0  0  0  0  0  0  0  0
    5.7854    7.2580    0.0000 O   0  0  0  0  0  0  0  0  0  0  0  0
    3.5007    6.0209    0.0000 C   0  0  0  0  0  0  0  0  0  0  0  0
    3.2559    4.5410    0.0000 C   0  0  0  0  0  0  0  0  0  0  0  0
    2.6210    3.1820    0.0000 O   0  0  0  0  0  0  0  0  0  0  0  0
    1.6429    2.0448    0.0000 C   0  0  0  0  0  0  0  0  0  0  0  0
    0.3943    1.2135    0.0000 C   0  0  0  0  0  0  0  0  0  0  0  0
    1.2760    0.0000    0.0000 C   0  0  0  0  0  0  0  0  0  0  0  0
    0.3943   -1.2135    0.0000 N   0  0  0  0  0  0  0  0  0  0  0  0
   -1.0323   -0.7500    0.0000 N   0  0  0  0  0  0  0  0  0  0  0  0
   -1.0323    0.7500    0.0000 N   0  0  0  0  0  0  0  0  0  0  0  0
   -2.5310    0.6886    0.0000 C   0  0  0  0  0  0  0  0  0  0  0  0
   -3.9908    1.0337    0.0000 C   0  0  0  0  0  0  0  0  0  0  0  0
   -5.3033    1.7600    0.0000 C   0  0  0  0  0  0  0  0  0  0  0  0
   -6.3711    2.8133    0.0000 C   0  0  0  0  0  0  0  0  0  0  0  0
   -7.1152    4.1158    0.0000 C   0  0  0  0  0  0  0  0  0  0  0  0
   -7.4803    5.5707    0.0000 C   0  0  0  0  0  0  0  0  0  0  0  0
   -7.4393    7.0701    0.0000 C   0  0  0  0  0  0  0  0  0  0  0  0
   -6.9953    8.5029    0.0000 C   0  0  0  0  0  0  0  0  0  0  0  0
   -6.1812    9.7628    0.0000 C   0  0  0  0  0  0  0  0  0  0  0  0
   -5.0574   10.7563    0.0000 C   0  0  0  0  0  0  0  0  0  0  0  0
   -5.8887   12.0049    0.0000 O   0  0  0  0  0  0  0  0  0  0  0  0
   -3.7072   11.4097    0.0000 N   0  0  0  0  0  0  0  0  0  0  0  0
   -4.4155   12.7320    0.0000 C   0  0  0  0  0  0  0  0  0  0  0  0
   -3.3768   13.8142    0.0000 C   0  0  0  0  0  0  0  0  0  0  0  0
   -2.0266   13.1607    0.0000 C   0  0  0  0  0  0  0  0  0  0  0  0
   -2.2308   11.6747    0.0000 C   0  0  0  0  0  0  0  0  0  0  0  0
   -0.7377   11.5315    0.0000 C   0  0  0  0  0  0  0  0  0  0  0  0
   -0.3925   12.9912    0.0000 O   0  0  0  0  0  0  0  0  0  0  0  0
    0.6615   10.9907    0.0000 N   0  0  0  0  0  0  0  0  0  0  0  0
    1.8628   10.0926    0.0000 C   0  0  0  0  0  0  0  0  0  0  0  0
    2.9162   11.1605    0.0000 C   0  0  0  0  0  0  0  0  0  0  0  0
    2.5181   12.6067    0.0000 C   0  0  0  0  0  0  0  0  0  0  0  0
    1.0666   12.9850    0.0000 C   0  0  0  0  0  0  0  0  0  0  0  0
    0.6685   14.4312    0.0000 C   0  0  0  0  0  0  0  0  0  0  0  0
    1.7219   15.4991    0.0000 C   0  0  0  0  0  0  0  0  0  0  0  0
    3.1734   15.1207    0.0000 C   0  0  0  0  0  0  0  0  0  0  0  0
    4.2268   16.1886    0.0000 C   0  0  0  0  0  0  0  0  0  0  0  0
    5.6783   15.8103    0.0000 C   0  0  0  0  0  0  0  0  0  0  0  0
    6.0764   14.3641    0.0000 C   0  0  0  0  0  0  0  0  0  0  0  0
    5.0230   13.2962    0.0000 C   0  0  0  0  0  0  0  0  0  0  0  0
    3.5715   13.6745    0.0000 C   0  0  0  0  0  0  0  0  0  0  0  0
    2.7773    8.9036    0.0000 C   0  0  0  0  0  0  0  0  0  0  0  0
    4.0798    9.6477    0.0000 O   0  0  0  0  0  0  0  0  0  0  0  0
    3.3371    7.5120    0.0000 N   0  0  0  0  0  0  0  0  0  0  0  0
    7.9990    5.8980    0.0000 C   0  0  0  0  0  0  0  0  0  0  0  0
    9.4985    5.8570    0.0000 N   0  0  0  0  0  0  0  0  0  0  0  0
    7.2848    7.2170    0.0000 O   0  0  0  0  0  0  0  0  0  0  0  0
  1  2  1  0
  2  3  1  0
  2  4  1  0
  5  4  1  6
  5  6  1  0
  6  7  1  0
  7  8  2  0
  9  7  1  6
  9 10  1  0
 10 11  1  0
 11 12  1  0
 12 13  1  0
 13 14  2  0
 14 15  1  0
 15 16  2  0
 16 17  1  0
 17 18  1  0
 18 19  1  0
 19 20  1  0
 20 21  1  0
 21 22  1  0
 22 23  1  0
 23 24  1  0
 24 25  1  0
 25 26  1  0
 26 27  1  0
 27 28  2  0
 27 29  1  0
 29 30  1  0
 30 31  1  0
 31 32  1  0
 33 32  1  1
 33 34  1  0
 34 35  2  0
 34 36  1  0
 36 37  1  0
 37 38  1  1
 38 39  1  0
 39 40  2  0
 40 41  1  0
 41 42  2  0
 42 43  1  0
 43 44  2  0
 44 45  1  0
 45 46  2  0
 46 47  1  0
 47 48  2  0
 37 49  1  0
 49 50  2  0
 49 51  1  0
  5 52  1  0
 52 53  1  0
 52 54  2  0
 51  9  1  0
 17 13  1  0
 33 29  1  0
 48 39  1  0
 48 43  1  0
M  END
>  <molecule_chembl_id>  (34) 
CHEMBL5093096

>  <canonical_smiles>  (34) 
CC(C)C[C@H](NC(=O)[C@@H]1COCc2cnnn2CCCCCCCCCC(=O)N2CCC[C@H]2C(=O)N[C@@H](Cc2cccc3ccccc23)C(=O)N1)C(N)=O

>  <pchembl_value_mean>  (34) 
4.55

>  <inchi>  (34) 
InChI=1S/C40H56N8O6/c1-27(2)22-32(37(41)50)43-39(52)34-26-54-25-30-24-42-46-48(30)21-11-7-5-3-4-6-8-19-36(49)47-20-13-18-35(47)40(53)44-33(38(51)45-34)23-29-16-12-15-28-14-9-10-17-31(28)29/h9-10,12,14-17,24,27,32-35H,3-8,11,13,18-23,25-26H2,1-2H3,(H2,41,50)(H,43,52)(H,44,53)(H,45,51)/t32-,33-,34-,35-/m0/s1

$$$$

     RDKit          2D

 54 58  0  0  0  0  0  0  0  0999 V2000
   10.2274    2.8889    0.0000 C   0  0  0  0  0  0  0  0  0  0  0  0
    9.3640    4.1154    0.0000 C   0  0  0  0  0  0  0  0  0  0  0  0
    9.9945    5.4765    0.0000 C   0  0  0  0  0  0  0  0  0  0  0  0
    7.8700    3.9810    0.0000 C   0  0  0  0  0  0  0  0  0  0  0  0
    7.0066    5.2076    0.0000 C   0  0  0  0  0  0  0  0  0  0  0  0
    7.6371    6.5686    0.0000 C   0  0  0  0  0  0  0  0  0  0  0  0
    9.1311    6.7031    0.0000 N   0  0  0  0  0  0  0  0  0  0  0  0
    6.7737    7.7952    0.0000 O   0  0  0  0  0  0  0  0  0  0  0  0
    5.5126    5.0731    0.0000 N   0  0  0  0  0  0  0  0  0  0  0  0
    4.8821    3.7121    0.0000 C   0  0  0  0  0  0  0  0  0  0  0  0
    4.6492    6.2997    0.0000 C   0  0  0  0  0  0  0  0  0  0  0  0
    5.2797    7.6607    0.0000 O   0  0  0  0  0  0  0  0  0  0  0  0
    3.1552    6.1652    0.0000 C   0  0  0  0  0  0  0  0  0  0  0  0
    3.0655    4.6679    0.0000 C   0  0  0  0  0  0  0  0  0  0  0  0
    2.5385    3.2636    0.0000 O   0  0  0  0  0  0  0  0  0  0  0  0
    1.6209    2.0770    0.0000 C   0  0  0  0  0  0  0  0  0  0  0  0
    0.3943    1.2135    0.0000 C   0  0  0  0  0  0  0  0  0  0  0  0
    1.2760    0.0000    0.0000 C   0  0  0  0  0  0  0  0  0  0  0  0
    0.3943   -1.2135    0.0000 N   0  0  0  0  0  0  0  0  0  0  0  0
   -1.0323   -0.7500    0.0000 N   0  0  0  0  0  0  0  0  0  0  0  0
   -1.0323    0.7500    0.0000 N   0  0  0  0  0  0  0  0  0  0  0  0
   -2.5321    0.7276    0.0000 C   0  0  0  0  0  0  0  0  0  0  0  0
   -3.9719    1.1482    0.0000 C   0  0  0  0  0  0  0  0  0  0  0  0
   -5.2238    1.9745    0.0000 C   0  0  0  0  0  0  0  0  0  0  0  0
   -6.1765    3.1332    0.0000 C   0  0  0  0  0  0  0  0  0  0  0  0
   -6.7453    4.5211    0.0000 C   0  0  0  0  0  0  0  0  0  0  0  0
   -8.2025    4.1655    0.0000 O   0  0  0  0  0  0  0  0  0  0  0  0
   -6.8798    6.0151    0.0000 N   0  0  0  0  0  0  0  0  0  0  0  0
   -6.5679    7.4823    0.0000 C   0  0  0  0  0  0  0  0  0  0  0  0
   -5.8374    8.7924    0.0000 C   0  0  0  0  0  0  0  0  0  0  0  0
   -7.0240    9.7100    0.0000 O   0  0  0  0  0  0  0  0  0  0  0  0
   -4.7532    9.8290    0.0000 N   0  0  0  0  0  0  0  0  0  0  0  0
   -5.8059   10.8976    0.0000 C   0  0  0  0  0  0  0  0  0  0  0  0
   -5.1150   12.2290    0.0000 C   0  0  0  0  0  0  0  0  0  0  0  0
   -3.6352   11.9832    0.0000 C   0  0  0  0  0  0  0  0  0  0  0  0
   -3.4117   10.5000    0.0000 C   0  0  0  0  0  0  0  0  0  0  0  0
   -1.9319   10.7457    0.0000 C   0  0  0  0  0  0  0  0  0  0  0  0
   -1.9544   12.2455    0.0000 O   0  0  0  0  0  0  0  0  0  0  0  0
   -0.4455   10.5444    0.0000 N   0  0  0  0  0  0  0  0  0  0  0  0
    0.9155    9.9138    0.0000 C   0  0  0  0  0  0  0  0  0  0  0  0
    1.7419   11.1657    0.0000 C   0  0  0  0  0  0  0  0  0  0  0  0
    1.0709   12.5073    0.0000 C   0  0  0  0  0  0  0  0  0  0  0  0
   -0.4264   12.5970    0.0000 C   0  0  0  0  0  0  0  0  0  0  0  0
   -1.0974   13.9385    0.0000 C   0  0  0  0  0  0  0  0  0  0  0  0
   -0.2710   15.1904    0.0000 C   0  0  0  0  0  0  0  0  0  0  0  0
    1.2263   15.1007    0.0000 C   0  0  0  0  0  0  0  0  0  0  0  0
    2.0526   16.3525    0.0000 C   0  0  0  0  0  0  0  0  0  0  0  0
    3.5500   16.2628    0.0000 C   0  0  0  0  0  0  0  0  0  0  0  0
    4.2209   14.9213    0.0000 C   0  0  0  0  0  0  0  0  0  0  0  0
    3.3946   13.6694    0.0000 C   0  0  0  0  0  0  0  0  0  0  0  0
    1.8973   13.7591    0.0000 C   0  0  0  0  0  0  0  0  0  0  0  0
    2.0303    8.9101    0.0000 C   0  0  0  0  0  0  0  0  0  0  0  0
    3.1889    9.8628    0.0000 O   0  0  0  0  0  0  0  0  0  0  0  0
    2.7996    7.6225    0.0000 N   0  0  0  0  0  0  0  0  0  0  0  0
  1  2  1  0
  2  3  1  0
  2  4  1  0
  5  4  1  6
  5  6  1  0
  6  7  1  0
  6  8  2  0
  5  9  1  0
  9 10  1  0
  9 11  1  0
 11 12  2  0
 13 11  1  6
 13 14  1  0
 14 15  1  0
 15 16  1  0
 16 17  1  0
 17 18  2  0
 18 19  1  0
 19 20  2  0
 20 21  1  0
 21 22  1  0
 22 23  1  0
 23 24  1  0
 24 25  1  0
 25 26  1  0
 26 27  2  0
 26 28  1  0
 28 29  1  0
 29 30  1  0
 30 31  2  0
 30 32  1  0
 32 33  1  0
 33 34  1  0
 34 35  1  0
 36 35  1  1
 36 37  1  0
 37 38  2  0
 37 39  1  0
 39 40  1  0
 40 41  1  1
 41 42  1  0
 42 43  2  0
 43 44  1  0
 44 45  2  0
 45 46  1  0
 46 47  2  0
 47 48  1  0
 48 49  2  0
 49 50  1  0
 50 51  2  0
 40 52  1  0
 52 53  2  0
 52 54  1  0
 54 13  1  0
 21 17  1  0
 36 32  1  0
 51 42  1  0
 51 46  1  0
M  END
>  <molecule_chembl_id>  (35) 
CHEMBL5078754

>  <canonical_smiles>  (35) 
CC(C)C[C@@H](C(N)=O)N(C)C(=O)[C@@H]1COCc2cnnn2CCCCC(=O)NCC(=O)N2CCC[C@H]2C(=O)N[C@@H](Cc2cccc3ccccc23)C(=O)N1

>  <pchembl_value_mean>  (35) 
4.585

>  <inchi>  (35) 
InChI=1S/C38H51N9O7/c1-24(2)18-32(35(39)50)45(3)38(53)30-23-54-22-27-20-41-44-47(27)17-7-6-15-33(48)40-21-34(49)46-16-9-14-31(46)37(52)42-29(36(51)43-30)19-26-12-8-11-25-10-4-5-13-28(25)26/h4-5,8,10-13,20,24,29-32H,6-7,9,14-19,21-23H2,1-3H3,(H2,39,50)(H,40,48)(H,42,52)(H,43,51)/t29-,30-,31-,32-/m0/s1

$$$$

     RDKit          2D

 31 31  0  0  0  0  0  0  0  0999 V2000
    3.0000  -10.3923    0.0000 C   0  0  0  0  0  0  0  0  0  0  0  0
    3.7500   -9.0933    0.0000 S   0  0  0  0  0  0  0  0  0  0  0  0
    3.0000   -7.7942    0.0000 C   0  0  0  0  0  0  0  0  0  0  0  0
    3.7500   -6.4952    0.0000 C   0  0  0  0  0  0  0  0  0  0  0  0
    3.0000   -5.1962    0.0000 C   0  0  0  0  0  0  0  0  0  0  0  0
    3.7500   -3.8971    0.0000 C   0  0  0  0  0  0  0  0  0  0  0  0
    3.0000   -2.5981    0.0000 C   0  0  0  0  0  0  0  0  0  0  0  0
    1.5000   -2.5981    0.0000 O   0  0  0  0  0  0  0  0  0  0  0  0
    3.7500   -1.2990    0.0000 C   0  0  0  0  0  0  0  0  0  0  0  0
    5.2500   -1.2990    0.0000 C   0  0  0  0  0  0  0  0  0  0  0  0
    6.0000    0.0000    0.0000 C   0  0  0  0  0  0  0  0  0  0  0  0
    5.2500    1.2990    0.0000 C   0  0  0  0  0  0  0  0  0  0  0  0
    6.0000    2.5981    0.0000 C   0  0  0  0  0  0  0  0  0  0  0  0
    5.2500    3.8971    0.0000 C   0  0  0  0  0  0  0  0  0  0  0  0
    6.0000    5.1962    0.0000 C   0  0  0  0  0  0  0  0  0  0  0  0
    7.5000    5.1962    0.0000 N   0  0  0  0  0  0  0  0  0  0  0  0
    5.2500    6.4952    0.0000 C   0  0  0  0  0  0  0  0  0  0  0  0
    6.0000    7.7942    0.0000 S   0  0  0  0  0  0  0  0  0  0  0  0
    3.7500    1.2990    0.0000 C   0  0  0  0  0  0  0  0  0  0  0  0
    3.0000    2.5981    0.0000 C   0  0  0  0  0  0  0  0  0  0  0  0
    3.1962    0.7256    0.0000 C   0  0  0  0  0  0  0  0  0  0  0  0
    3.0000    0.0000    0.0000 C   0  0  0  0  0  0  0  0  0  0  0  0
    1.5000    0.0000    0.0000 C   0  0  0  0  0  0  0  0  0  0  0  0
    0.7500   -1.2990    0.0000 C   0  0  0  0  0  0  0  0  0  0  0  0
   -0.7500   -1.2990    0.0000 C   0  0  0  0  0  0  0  0  0  0  0  0
   -1.5000    0.0000    0.0000 C   0  0  0  0  0  0  0  0  0  0  0  0
   -0.7500    1.2990    0.0000 C   0  0  0  0  0  0  0  0  0  0  0  0
    0.7500    1.2990    0.0000 C   0  0  0  0  0  0  0  0  0  0  0  0
    1.5000   -5.1962    0.0000 C   0  0  0  0  0  0  0  0  0  0  0  0
    0.7500   -3.8971    0.0000 O   0  0  0  0  0  0  0  0  0  0  0  0
    0.7500   -6.4952    0.0000 O   0  0  0  0  0  0  0  0  0  0  0  0
  1  2  1  0
  2  3  1  0
  3  4  1  0
  5  4  1  1
  5  6  1  0
  6  7  1  0
  7  8  2  0
  7  9  1  0
  9 10  1  0
 10 11  2  0
 11 12  1  0
 12 13  1  0
 13 14  2  0
 14 15  1  0
 15 16  1  6
 15 17  1  0
 17 18  1  0
 12 19  1  6
 19 20  1  0
 19 21  1  0
  9 22  1  1
 22 23  1  0
 23 24  2  0
 24 25  1  0
 25 26  2  0
 26 27  1  0
 27 28  2  0
  5 29  1  0
 29 30  2  0
 29 31  1  0
 28 23  1  0
M  END
>  <molecule_chembl_id>  (36) 
CHEMBL5191267

>  <canonical_smiles>  (36) 
CSCC[C@H](CC(=O)[C@H](/C=C\[C@@H](/C=C/[C@@H](N)CS)C(C)C)Cc1ccccc1)C(=O)O

>  <pchembl_value_mean>  (36) 
4.6

>  <inchi>  (36) 
InChI=1S/C25H37NO3S2/c1-18(2)20(11-12-23(26)17-30)9-10-21(15-19-7-5-4-6-8-19)24(27)16-22(25(28)29)13-14-31-3/h4-12,18,20-23,30H,13-17,26H2,1-3H3,(H,28,29)/b10-9-,12-11+/t20-,21+,22+,23+/m0/s1

$$$$

     RDKit          2D

 23 24  0  0  0  0  0  0  0  0999 V2000
    3.7500   -1.2990    0.0000 C   0  0  0  0  0  0  0  0  0  0  0  0
    3.0000    0.0000    0.0000 O   0  0  0  0  0  0  0  0  0  0  0  0
    1.5000    0.0000    0.0000 C   0  0  0  0  0  0  0  0  0  0  0  0
    0.7500   -1.2990    0.0000 C   0  0  0  0  0  0  0  0  0  0  0  0
   -0.7500   -1.2990    0.0000 C   0  0  0  0  0  0  0  0  0  0  0  0
   -1.5000   -2.5981    0.0000 C   0  0  0  0  0  0  0  0  0  0  0  0
   -3.0000   -2.5981    0.0000 C   0  0  0  0  0  0  0  0  0  0  0  0
   -3.7500   -3.8971    0.0000 C   0  0  0  0  0  0  0  0  0  0  0  0
   -3.0000   -5.1962    0.0000 O   0  0  0  0  0  0  0  0  0  0  0  0
   -5.2500   -3.8971    0.0000 C   0  0  0  0  0  0  0  0  0  0  0  0
   -6.0000   -2.5981    0.0000 C   0  0  0  0  0  0  0  0  0  0  0  0
   -7.5000   -2.5981    0.0000 C   0  0  0  0  0  0  0  0  0  0  0  0
   -8.2500   -3.8971    0.0000 C   0  0  0  0  0  0  0  0  0  0  0  0
   -9.7500   -3.8971    0.0000 Br  0  0  0  0  0  0  0  0  0  0  0  0
   -7.5000   -5.1962    0.0000 C   0  0  0  0  0  0  0  0  0  0  0  0
   -6.0000   -5.1962    0.0000 C   0  0  0  0  0  0  0  0  0  0  0  0
   -1.5000    0.0000    0.0000 C   0  0  0  0  0  0  0  0  0  0  0  0
   -0.7500    1.2990    0.0000 C   0  0  0  0  0  0  0  0  0  0  0  0
   -1.5000    2.5981    0.0000 O   0  0  0  0  0  0  0  0  0  0  0  0
   -0.7500    3.8971    0.0000 C   0  0  0  0  0  0  0  0  0  0  0  0
    0.7500    1.2990    0.0000 C   0  0  0  0  0  0  0  0  0  0  0  0
    1.5000    2.5981    0.0000 O   0  0  0  0  0  0  0  0  0  0  0  0
    3.0000    2.5981    0.0000 C   0  0  0  0  0  0  0  0  0  0  0  0
  1  2  1  0
  2  3  1  0
  3  4  2  0
  4  5  1  0
  5  6  1  0
  6  7  2  0
  7  8  1  0
  8  9  2  0
  8 10  1  0
 10 11  2  0
 11 12  1  0
 12 13  2  0
 13 14  1  0
 13 15  1  0
 15 16  2  0
  5 17  2  0
 17 18  1  0
 18 19  1  0
 19 20  1  0
 18 21  2  0
 21 22  1  0
 22 23  1  0
 21  3  1  0
 16 10  1  0
M  END
>  <molecule_chembl_id>  (37) 
CHEMBL589993

>  <canonical_smiles>  (37) 
COc1cc(/C=C/C(=O)c2ccc(Br)cc2)cc(OC)c1OC

>  <pchembl_value_mean>  (37) 
4.61

>  <inchi>  (37) 
InChI=1S/C18H17BrO4/c1-21-16-10-12(11-17(22-2)18(16)23-3)4-9-15(20)13-5-7-14(19)8-6-13/h4-11H,1-3H3/b9-4+

$$$$

     RDKit          2D

176180  0  0  0  0  0  0  0  0999 V2000
    9.5281   20.0200    0.0000 C   0  0  0  0  0  0  0  0  0  0  0  0
    9.1075   21.4598    0.0000 C   0  0  0  0  0  0  0  0  0  0  0  0
    7.6503   21.8154    0.0000 O   0  0  0  0  0  0  0  0  0  0  0  0
   10.1441   22.5440    0.0000 N   0  0  0  0  0  0  0  0  0  0  0  0
    9.7235   23.9838    0.0000 C   0  0  0  0  0  0  0  0  0  0  0  0
   10.7600   25.0680    0.0000 C   0  0  0  0  0  0  0  0  0  0  0  0
   12.2173   24.7123    0.0000 C   0  0  0  0  0  0  0  0  0  0  0  0
   13.2539   25.7965    0.0000 C   0  0  0  0  0  0  0  0  0  0  0  0
   14.7111   25.4409    0.0000 N   0  0  0  0  0  0  0  0  0  0  0  0
   15.7477   26.5251    0.0000 C   0  0  0  0  0  0  0  0  0  0  0  0
   15.3271   27.9649    0.0000 N   0  0  0  0  0  0  0  0  0  0  0  0
   17.2049   26.1695    0.0000 N   0  0  0  0  0  0  0  0  0  0  0  0
    8.2662   24.3394    0.0000 C   0  0  0  0  0  0  0  0  0  0  0  0
    7.8456   25.7792    0.0000 O   0  0  0  0  0  0  0  0  0  0  0  0
    7.2296   23.2552    0.0000 N   0  0  0  0  0  0  0  0  0  0  0  0
    5.7724   23.6108    0.0000 C   0  0  0  0  0  0  0  0  0  0  0  0
    5.3518   25.0506    0.0000 C   0  0  0  0  0  0  0  0  0  0  0  0
    6.3883   26.1348    0.0000 C   0  0  0  0  0  0  0  0  0  0  0  0
    5.9677   27.5746    0.0000 C   0  0  0  0  0  0  0  0  0  0  0  0
    7.0043   28.6588    0.0000 N   0  0  0  0  0  0  0  0  0  0  0  0
    6.5837   30.0986    0.0000 C   0  0  0  0  0  0  0  0  0  0  0  0
    5.1264   30.4543    0.0000 N   0  0  0  0  0  0  0  0  0  0  0  0
    7.6203   31.1828    0.0000 N   0  0  0  0  0  0  0  0  0  0  0  0
    4.7358   22.5266    0.0000 C   0  0  0  0  0  0  0  0  0  0  0  0
    3.2786   22.8823    0.0000 O   0  0  0  0  0  0  0  0  0  0  0  0
    5.1564   21.0868    0.0000 N   0  0  0  0  0  0  0  0  0  0  0  0
    4.1198   20.0026    0.0000 C   0  0  0  0  0  0  0  0  0  0  0  0
    2.6626   20.3582    0.0000 C   0  0  0  0  0  0  0  0  0  0  0  0
    2.2420   21.7981    0.0000 C   0  0  0  0  0  0  0  0  0  0  0  0
    0.7847   22.1537    0.0000 C   0  0  0  0  0  0  0  0  0  0  0  0
    0.3641   23.5935    0.0000 N   0  0  0  0  0  0  0  0  0  0  0  0
   -1.0931   23.9491    0.0000 C   0  0  0  0  0  0  0  0  0  0  0  0
   -2.1297   22.8649    0.0000 N   0  0  0  0  0  0  0  0  0  0  0  0
   -1.5138   25.3889    0.0000 N   0  0  0  0  0  0  0  0  0  0  0  0
    4.5405   18.5628    0.0000 C   0  0  0  0  0  0  0  0  0  0  0  0
    3.5039   17.4786    0.0000 O   0  0  0  0  0  0  0  0  0  0  0  0
    5.9977   18.2072    0.0000 N   0  0  0  0  0  0  0  0  0  0  0  0
    6.4184   16.7674    0.0000 C   0  0  0  0  0  0  0  0  0  0  0  0
    7.8756   16.4118    0.0000 C   0  0  0  0  0  0  0  0  0  0  0  0
    8.9122   17.4960    0.0000 C   0  0  0  0  0  0  0  0  0  0  0  0
   10.3694   17.1403    0.0000 C   0  0  0  0  0  0  0  0  0  0  0  0
   11.4060   18.2245    0.0000 N   0  0  0  0  0  0  0  0  0  0  0  0
   12.8633   17.8689    0.0000 C   0  0  0  0  0  0  0  0  0  0  0  0
   13.2839   16.4291    0.0000 N   0  0  0  0  0  0  0  0  0  0  0  0
   13.8998   18.9531    0.0000 N   0  0  0  0  0  0  0  0  0  0  0  0
    5.3818   15.6832    0.0000 C   0  0  0  0  0  0  0  0  0  0  0  0
    5.8024   14.2434    0.0000 O   0  0  0  0  0  0  0  0  0  0  0  0
    3.9245   16.0388    0.0000 N   0  0  0  0  0  0  0  0  0  0  0  0
    2.8879   14.9546    0.0000 C   0  0  0  0  0  0  0  0  0  0  0  0
    3.8748   13.8250    0.0000 C   0  0  0  0  0  0  0  0  0  0  0  0
    4.6442   12.5373    0.0000 S   0  0  0  0  0  0  0  0  0  0  0  0
    5.1713   11.1330    0.0000 S   0  0  0  0  0  0  0  0  0  0  0  0
    5.4391    9.6571    0.0000 C   0  0  0  0  0  0  0  0  0  0  0  0
    5.4391    8.1571    0.0000 C   0  0  0  0  0  0  0  0  0  0  0  0
    6.9331    8.0226    0.0000 C   0  0  0  0  0  0  0  0  0  0  0  0
    7.7965    9.2492    0.0000 O   0  0  0  0  0  0  0  0  0  0  0  0
    7.5636    6.6616    0.0000 N   0  0  0  0  0  0  0  0  0  0  0  0
    9.0576    6.5271    0.0000 C   0  0  0  0  0  0  0  0  0  0  0  0
    9.6881    5.1661    0.0000 C   0  0  0  0  0  0  0  0  0  0  0  0
   11.1820    5.0316    0.0000 C   0  0  0  0  0  0  0  0  0  0  0  0
   11.8126    3.6706    0.0000 C   0  0  0  0  0  0  0  0  0  0  0  0
   13.3065    3.5361    0.0000 N   0  0  0  0  0  0  0  0  0  0  0  0
   13.9371    2.1751    0.0000 C   0  0  0  0  0  0  0  0  0  0  0  0
   13.0737    0.9485    0.0000 N   0  0  0  0  0  0  0  0  0  0  0  0
   15.4310    2.0406    0.0000 N   0  0  0  0  0  0  0  0  0  0  0  0
    9.9210    7.7537    0.0000 C   0  0  0  0  0  0  0  0  0  0  0  0
    9.2904    9.1148    0.0000 O   0  0  0  0  0  0  0  0  0  0  0  0
   11.4149    7.6193    0.0000 N   0  0  0  0  0  0  0  0  0  0  0  0
   12.2784    8.8458    0.0000 C   0  0  0  0  0  0  0  0  0  0  0  0
   11.6478   10.2069    0.0000 C   0  0  0  0  0  0  0  0  0  0  0  0
   12.5113   11.4335    0.0000 C   0  0  0  0  0  0  0  0  0  0  0  0
   11.8807   12.7945    0.0000 C   0  0  0  0  0  0  0  0  0  0  0  0
   12.7441   14.0211    0.0000 N   0  0  0  0  0  0  0  0  0  0  0  0
   14.2381   13.8866    0.0000 C   0  0  0  0  0  0  0  0  0  0  0  0
   15.1015   15.1132    0.0000 N   0  0  0  0  0  0  0  0  0  0  0  0
   14.8686   12.5256    0.0000 N   0  0  0  0  0  0  0  0  0  0  0  0
   13.7723    8.7114    0.0000 C   0  0  0  0  0  0  0  0  0  0  0  0
   14.4029    7.3503    0.0000 O   0  0  0  0  0  0  0  0  0  0  0  0
   14.6358    9.9380    0.0000 N   0  0  0  0  0  0  0  0  0  0  0  0
   16.1297    9.8035    0.0000 C   0  0  0  0  0  0  0  0  0  0  0  0
   16.9931   11.0301    0.0000 C   0  0  0  0  0  0  0  0  0  0  0  0
   16.3626   12.3911    0.0000 C   0  0  0  0  0  0  0  0  0  0  0  0
   17.2260   13.6177    0.0000 C   0  0  0  0  0  0  0  0  0  0  0  0
   16.5955   14.9787    0.0000 N   0  0  0  0  0  0  0  0  0  0  0  0
   17.4589   16.2053    0.0000 C   0  0  0  0  0  0  0  0  0  0  0  0
   18.9529   16.0708    0.0000 N   0  0  0  0  0  0  0  0  0  0  0  0
   16.8284   17.5663    0.0000 N   0  0  0  0  0  0  0  0  0  0  0  0
   16.7602    8.4425    0.0000 C   0  0  0  0  0  0  0  0  0  0  0  0
   18.2542    8.3080    0.0000 O   0  0  0  0  0  0  0  0  0  0  0  0
   15.8968    7.2159    0.0000 N   0  0  0  0  0  0  0  0  0  0  0  0
   16.5274    5.8548    0.0000 C   0  0  0  0  0  0  0  0  0  0  0  0
   15.6639    4.6283    0.0000 C   0  0  0  0  0  0  0  0  0  0  0  0
   16.2945    3.2672    0.0000 C   0  0  0  0  0  0  0  0  0  0  0  0
   17.7884    3.1328    0.0000 C   0  0  0  0  0  0  0  0  0  0  0  0
   18.4190    1.7717    0.0000 N   0  0  0  0  0  0  0  0  0  0  0  0
   19.9129    1.6373    0.0000 C   0  0  0  0  0  0  0  0  0  0  0  0
   20.7764    2.8638    0.0000 N   0  0  0  0  0  0  0  0  0  0  0  0
   20.5435    0.2762    0.0000 N   0  0  0  0  0  0  0  0  0  0  0  0
   18.0213    5.7204    0.0000 C   0  0  0  0  0  0  0  0  0  0  0  0
   18.8847    6.9470    0.0000 N   0  0  0  0  0  0  0  0  0  0  0  0
   18.6519    4.3593    0.0000 O   0  0  0  0  0  0  0  0  0  0  0  0
    5.1713    6.6812    0.0000 N   0  0  0  0  0  0  0  0  0  0  0  0
    4.6442    5.2768    0.0000 C   0  0  0  0  0  0  0  0  0  0  0  0
    5.9956    4.6260    0.0000 O   0  0  0  0  0  0  0  0  0  0  0  0
    3.8748    3.9892    0.0000 C   0  0  0  0  0  0  0  0  0  0  0  0
    5.0884    3.1075    0.0000 C   0  0  0  0  0  0  0  0  0  0  0  0
    4.9316    1.6157    0.0000 C   0  0  0  0  0  0  0  0  0  0  0  0
    6.4587    3.7176    0.0000 C   0  0  0  0  0  0  0  0  0  0  0  0
    2.8879    2.8596    0.0000 N   0  0  0  0  0  0  0  0  0  0  0  0
    1.7152    1.9243    0.0000 C   0  0  0  0  0  0  0  0  0  0  0  0
    2.5415    0.6725    0.0000 O   0  0  0  0  0  0  0  0  0  0  0  0
    0.3943    1.2135    0.0000 C   0  0  0  0  0  0  0  0  0  0  0  0
    1.2760    0.0000    0.0000 C   0  0  0  0  0  0  0  0  0  0  0  0
    0.3943   -1.2135    0.0000 C   0  0  0  0  0  0  0  0  0  0  0  0
   -1.0323   -0.7500    0.0000 C   0  0  0  0  0  0  0  0  0  0  0  0
   -1.0323    0.7500    0.0000 N   0  0  0  0  0  0  0  0  0  0  0  0
   -2.5187    0.5487    0.0000 C   0  0  0  0  0  0  0  0  0  0  0  0
   -2.4514   -0.9498    0.0000 O   0  0  0  0  0  0  0  0  0  0  0  0
   -4.0172    0.6159    0.0000 C   0  0  0  0  0  0  0  0  0  0  0  0
   -4.2186   -0.8705    0.0000 C   0  0  0  0  0  0  0  0  0  0  0  0
   -5.6065   -1.4393    0.0000 C   0  0  0  0  0  0  0  0  0  0  0  0
   -6.7931   -0.5217    0.0000 O   0  0  0  0  0  0  0  0  0  0  0  0
   -5.8079   -2.9257    0.0000 O   0  0  0  0  0  0  0  0  0  0  0  0
   -5.4796    0.9497    0.0000 N   0  0  0  0  0  0  0  0  0  0  0  0
   -6.8589    1.5393    0.0000 C   0  0  0  0  0  0  0  0  0  0  0  0
   -7.5697    0.2184    0.0000 O   0  0  0  0  0  0  0  0  0  0  0  0
   -8.1107    2.3656    0.0000 C   0  0  0  0  0  0  0  0  0  0  0  0
   -9.0460    1.1929    0.0000 C   0  0  0  0  0  0  0  0  0  0  0  0
  -10.5292    1.4164    0.0000 C   0  0  0  0  0  0  0  0  0  0  0  0
  -11.0772    2.8127    0.0000 C   0  0  0  0  0  0  0  0  0  0  0  0
  -12.5605    3.0363    0.0000 C   0  0  0  0  0  0  0  0  0  0  0  0
  -13.4957    1.8636    0.0000 C   0  0  0  0  0  0  0  0  0  0  0  0
  -14.9790    2.0871    0.0000 O   0  0  0  0  0  0  0  0  0  0  0  0
  -12.9477    0.4672    0.0000 C   0  0  0  0  0  0  0  0  0  0  0  0
  -11.4645    0.2437    0.0000 C   0  0  0  0  0  0  0  0  0  0  0  0
   -9.1949    3.4022    0.0000 N   0  0  0  0  0  0  0  0  0  0  0  0
  -10.0766    4.6157    0.0000 C   0  0  0  0  0  0  0  0  0  0  0  0
  -11.3643    3.8464    0.0000 O   0  0  0  0  0  0  0  0  0  0  0  0
  -10.7274    5.9672    0.0000 C   0  0  0  0  0  0  0  0  0  0  0  0
  -12.1318    5.4401    0.0000 C   0  0  0  0  0  0  0  0  0  0  0  0
  -13.2904    6.3928    0.0000 O   0  0  0  0  0  0  0  0  0  0  0  0
  -11.1265    7.4131    0.0000 N   0  0  0  0  0  0  0  0  0  0  0  0
  -11.2610    8.9071    0.0000 C   0  0  0  0  0  0  0  0  0  0  0  0
  -12.7610    8.9071    0.0000 O   0  0  0  0  0  0  0  0  0  0  0  0
  -11.1265   10.4011    0.0000 C   0  0  0  0  0  0  0  0  0  0  0  0
  -12.6024   10.6689    0.0000 C   0  0  0  0  0  0  0  0  0  0  0  0
  -10.7274   11.8470    0.0000 N   0  0  0  0  0  0  0  0  0  0  0  0
  -10.0766   13.1984    0.0000 C   0  0  0  0  0  0  0  0  0  0  0  0
  -11.3643   13.9678    0.0000 O   0  0  0  0  0  0  0  0  0  0  0  0
   -9.1949   14.4120    0.0000 C   0  0  0  0  0  0  0  0  0  0  0  0
  -10.3245   15.3989    0.0000 C   0  0  0  0  0  0  0  0  0  0  0  0
  -11.7440   14.9141    0.0000 C   0  0  0  0  0  0  0  0  0  0  0  0
  -12.0339   13.4423    0.0000 C   0  0  0  0  0  0  0  0  0  0  0  0
  -13.4534   12.9575    0.0000 C   0  0  0  0  0  0  0  0  0  0  0  0
  -14.5830   13.9444    0.0000 C   0  0  0  0  0  0  0  0  0  0  0  0
  -16.0025   13.4596    0.0000 O   0  0  0  0  0  0  0  0  0  0  0  0
  -14.2931   15.4162    0.0000 C   0  0  0  0  0  0  0  0  0  0  0  0
  -12.8736   15.9010    0.0000 C   0  0  0  0  0  0  0  0  0  0  0  0
   -8.1107   15.4486    0.0000 N   0  0  0  0  0  0  0  0  0  0  0  0
   -6.8589   16.2749    0.0000 C   0  0  0  0  0  0  0  0  0  0  0  0
   -7.5697   17.5958    0.0000 O   0  0  0  0  0  0  0  0  0  0  0  0
   -5.4796   16.8645    0.0000 C   0  0  0  0  0  0  0  0  0  0  0  0
   -5.9431   18.2910    0.0000 C   0  0  0  0  0  0  0  0  0  0  0  0
   -7.4103   18.6029    0.0000 C   0  0  0  0  0  0  0  0  0  0  0  0
   -7.8739   20.0295    0.0000 C   0  0  0  0  0  0  0  0  0  0  0  0
   -8.4140   17.4882    0.0000 C   0  0  0  0  0  0  0  0  0  0  0  0
   -4.0172   17.1982    0.0000 N   0  0  0  0  0  0  0  0  0  0  0  0
   -2.5187   17.2655    0.0000 C   0  0  0  0  0  0  0  0  0  0  0  0
   -2.4514   18.7640    0.0000 O   0  0  0  0  0  0  0  0  0  0  0  0
   -1.0323   17.0642    0.0000 C   0  0  0  0  0  0  0  0  0  0  0  0
   -1.0323   18.5642    0.0000 C   0  0  0  0  0  0  0  0  0  0  0  0
    0.3943   19.0277    0.0000 C   0  0  0  0  0  0  0  0  0  0  0  0
    1.2760   17.8142    0.0000 C   0  0  0  0  0  0  0  0  0  0  0  0
    0.3943   16.6007    0.0000 N   0  0  0  0  0  0  0  0  0  0  0  0
    1.7152   15.8899    0.0000 C   0  0  0  0  0  0  0  0  0  0  0  0
    2.5415   17.1417    0.0000 O   0  0  0  0  0  0  0  0  0  0  0  0
  1  2  1  0
  2  3  2  0
  2  4  1  0
  4  5  1  0
  5  6  1  6
  6  7  1  0
  7  8  1  0
  8  9  1  0
  9 10  1  0
 10 11  2  0
 10 12  1  0
  5 13  1  0
 13 14  2  0
 13 15  1  0
 15 16  1  0
 16 17  1  6
 17 18  1  0
 18 19  1  0
 19 20  1  0
 20 21  1  0
 21 22  2  0
 21 23  1  0
 16 24  1  0
 24 25  2  0
 24 26  1  0
 26 27  1  0
 27 28  1  6
 28 29  1  0
 29 30  1  0
 30 31  1  0
 31 32  1  0
 32 33  2  0
 32 34  1  0
 27 35  1  0
 35 36  2  0
 35 37  1  0
 37 38  1  0
 38 39  1  1
 39 40  1  0
 40 41  1  0
 41 42  1  0
 42 43  1  0
 43 44  2  0
 43 45  1  0
 38 46  1  0
 46 47  2  0
 46 48  1  0
 49 48  1  1
 49 50  1  0
 50 51  1  0
 51 52  1  0
 52 53  1  0
 53 54  1  0
 54 55  1  1
 55 56  2  0
 55 57  1  0
 57 58  1  0
 58 59  1  6
 59 60  1  0
 60 61  1  0
 61 62  1  0
 62 63  1  0
 63 64  2  0
 63 65  1  0
 58 66  1  0
 66 67  2  0
 66 68  1  0
 68 69  1  0
 69 70  1  1
 70 71  1  0
 71 72  1  0
 72 73  1  0
 73 74  1  0
 74 75  2  0
 74 76  1  0
 69 77  1  0
 77 78  2  0
 77 79  1  0
 79 80  1  0
 80 81  1  1
 81 82  1  0
 82 83  1  0
 83 84  1  0
 84 85  1  0
 85 86  2  0
 85 87  1  0
 80 88  1  0
 88 89  2  0
 88 90  1  0
 90 91  1  0
 91 92  1  6
 92 93  1  0
 93 94  1  0
 94 95  1  0
 95 96  1  0
 96 97  2  0
 96 98  1  0
 91 99  1  0
 99100  1  0
 99101  2  0
 54102  1  0
102103  1  0
103104  2  0
103105  1  0
105106  1  6
106107  1  0
106108  1  0
105109  1  0
109110  1  0
110111  2  0
110112  1  0
112113  1  6
113114  1  0
114115  1  0
115116  1  0
116117  1  0
117118  2  0
117119  1  0
119120  1  6
120121  1  0
121122  2  0
121123  1  0
119124  1  0
124125  1  0
125126  2  0
125127  1  0
127128  1  6
128129  1  0
129130  2  0
130131  1  0
131132  2  0
132133  1  0
132134  1  0
134135  2  0
127136  1  0
136137  1  0
137138  2  0
137139  1  0
139140  1  6
140141  1  0
139142  1  0
142143  1  0
143144  2  0
143145  1  0
145146  1  6
145147  1  0
147148  1  0
148149  2  0
148150  1  0
150151  1  6
151152  1  0
152153  2  0
153154  1  0
154155  2  0
155156  1  0
155157  1  0
157158  2  0
150159  1  0
159160  1  0
160161  2  0
160162  1  0
162163  1  6
163164  1  0
164165  1  0
164166  1  0
162167  1  0
167168  1  0
168169  2  0
168170  1  0
170171  1  6
171172  1  0
172173  1  0
173174  1  0
174175  1  0
175176  2  0
175 49  1  0
116112  1  0
135129  1  0
158152  1  0
174170  1  0
M  END
>  <molecule_chembl_id>  (38) 
CHEMBL4075783

>  <canonical_smiles>  (38) 
CC(=O)N[C@@H](CCCNC(=N)N)C(=O)N[C@@H](CCCNC(=N)N)C(=O)N[C@@H](CCCNC(=N)N)C(=O)N[C@@H](CCCNC(=N)N)C(=O)N[C@H]1CSSC[C@@H](C(=O)N[C@@H](CCCNC(=N)N)C(=O)N[C@@H](CCCNC(=N)N)C(=O)N[C@@H](CCCNC(=N)N)C(=O)N[C@@H](CCCNC(=N)N)C(N)=O)NC(=O)[C@H](C(C)C)NC(=O)[C@@H]2CCCN2C(=O)[C@H](CC(=O)O)NC(=O)[C@H](Cc2ccc(O)cc2)NC(=O)[C@H](CO)NC(=O)[C@H](C)NC(=O)[C@H](Cc2ccc(O)cc2)NC(=O)[C@H](CC(C)C)NC(=O)[C@@H]2CCCN2C1=O

>  <pchembl_value_mean>  (38) 
4.63

>  <inchi>  (38) 
InChI=1S/C105H176N44O25S2/c1-52(2)45-68-89(166)140-69(46-56-27-31-58(152)32-28-56)88(165)131-54(5)80(157)144-72(49-150)91(168)141-70(47-57-29-33-59(153)34-30-57)90(167)143-71(48-77(154)155)96(173)148-43-16-26-76(148)94(171)147-78(53(3)4)95(172)145-73(92(169)139-66(23-13-41-129-104(119)120)86(163)137-64(21-11-39-127-102(115)116)84(161)135-62(19-9-37-125-100(111)112)82(159)133-60(79(106)156)17-7-35-123-98(107)108)50-175-176-51-74(97(174)149-44-15-25-75(149)93(170)142-68)146-87(164)67(24-14-42-130-105(121)122)138-85(162)65(22-12-40-128-103(117)118)136-83(160)63(20-10-38-126-101(113)114)134-81(158)61(132-55(6)151)18-8-36-124-99(109)110/h27-34,52-54,60-76,78,150,152-153H,7-26,35-51H2,1-6H3,(H2,106,156)(H,131,165)(H,132,151)(H,133,159)(H,134,158)(H,135,161)(H,136,160)(H,137,163)(H,138,162)(H,139,169)(H,140,166)(H,141,168)(H,142,170)(H,143,167)(H,144,157)(H,145,172)(H,146,164)(H,147,171)(H,154,155)(H4,107,108,123)(H4,109,110,124)(H4,111,112,125)(H4,113,114,126)(H4,115,116,127)(H4,117,118,128)(H4,119,120,129)(H4,121,122,130)/t54-,60-,61-,62-,63-,64-,65-,66-,67-,68-,69-,70-,71-,72-,73-,74-,75-,76-,78-/m0/s1

$$$$

     RDKit          2D

 52 55  0  0  0  0  0  0  0  0999 V2000
   10.2274    2.8889    0.0000 C   0  0  0  0  0  0  0  0  0  0  0  0
    9.3640    4.1154    0.0000 C   0  0  0  0  0  0  0  0  0  0  0  0
    9.9945    5.4765    0.0000 C   0  0  0  0  0  0  0  0  0  0  0  0
    7.8700    3.9810    0.0000 C   0  0  0  0  0  0  0  0  0  0  0  0
    7.0066    5.2076    0.0000 C   0  0  0  0  0  0  0  0  0  0  0  0
    5.5126    5.0731    0.0000 N   0  0  0  0  0  0  0  0  0  0  0  0
    4.6492    6.2997    0.0000 C   0  0  0  0  0  0  0  0  0  0  0  0
    5.2797    7.6607    0.0000 O   0  0  0  0  0  0  0  0  0  0  0  0
    3.1552    6.1652    0.0000 C   0  0  0  0  0  0  0  0  0  0  0  0
    3.0655    4.6679    0.0000 C   0  0  0  0  0  0  0  0  0  0  0  0
    2.5385    3.2636    0.0000 O   0  0  0  0  0  0  0  0  0  0  0  0
    1.6209    2.0770    0.0000 C   0  0  0  0  0  0  0  0  0  0  0  0
    0.3943    1.2135    0.0000 C   0  0  0  0  0  0  0  0  0  0  0  0
    1.2760    0.0000    0.0000 C   0  0  0  0  0  0  0  0  0  0  0  0
    0.3943   -1.2135    0.0000 N   0  0  0  0  0  0  0  0  0  0  0  0
   -1.0323   -0.7500    0.0000 N   0  0  0  0  0  0  0  0  0  0  0  0
   -1.0323    0.7500    0.0000 N   0  0  0  0  0  0  0  0  0  0  0  0
   -2.5321    0.7276    0.0000 C   0  0  0  0  0  0  0  0  0  0  0  0
   -3.9719    1.1482    0.0000 C   0  0  0  0  0  0  0  0  0  0  0  0
   -5.2238    1.9745    0.0000 C   0  0  0  0  0  0  0  0  0  0  0  0
   -6.1765    3.1332    0.0000 C   0  0  0  0  0  0  0  0  0  0  0  0
   -6.7453    4.5211    0.0000 C   0  0  0  0  0  0  0  0  0  0  0  0
   -8.2025    4.1655    0.0000 O   0  0  0  0  0  0  0  0  0  0  0  0
   -6.8798    6.0151    0.0000 N   0  0  0  0  0  0  0  0  0  0  0  0
   -6.5679    7.4823    0.0000 C   0  0  0  0  0  0  0  0  0  0  0  0
   -5.8374    8.7924    0.0000 C   0  0  0  0  0  0  0  0  0  0  0  0
   -7.0240    9.7100    0.0000 O   0  0  0  0  0  0  0  0  0  0  0  0
   -4.7532    9.8290    0.0000 N   0  0  0  0  0  0  0  0  0  0  0  0
   -3.4117   10.5000    0.0000 C   0  0  0  0  0  0  0  0  0  0  0  0
   -3.0270   11.9498    0.0000 C   0  0  0  0  0  0  0  0  0  0  0  0
   -4.5750   11.4469    0.0000 C   0  0  0  0  0  0  0  0  0  0  0  0
   -1.9319   10.7457    0.0000 C   0  0  0  0  0  0  0  0  0  0  0  0
   -1.9544   12.2455    0.0000 O   0  0  0  0  0  0  0  0  0  0  0  0
   -0.4455   10.5444    0.0000 N   0  0  0  0  0  0  0  0  0  0  0  0
    0.9155    9.9138    0.0000 C   0  0  0  0  0  0  0  0  0  0  0  0
    1.7419   11.1657    0.0000 C   0  0  0  0  0  0  0  0  0  0  0  0
    1.0709   12.5073    0.0000 C   0  0  0  0  0  0  0  0  0  0  0  0
   -0.4264   12.5970    0.0000 C   0  0  0  0  0  0  0  0  0  0  0  0
   -1.0974   13.9385    0.0000 C   0  0  0  0  0  0  0  0  0  0  0  0
   -0.2710   15.1904    0.0000 C   0  0  0  0  0  0  0  0  0  0  0  0
    1.2263   15.1007    0.0000 C   0  0  0  0  0  0  0  0  0  0  0  0
    2.0526   16.3525    0.0000 C   0  0  0  0  0  0  0  0  0  0  0  0
    3.5500   16.2628    0.0000 C   0  0  0  0  0  0  0  0  0  0  0  0
    4.2209   14.9213    0.0000 C   0  0  0  0  0  0  0  0  0  0  0  0
    3.3946   13.6694    0.0000 C   0  0  0  0  0  0  0  0  0  0  0  0
    1.8973   13.7591    0.0000 C   0  0  0  0  0  0  0  0  0  0  0  0
    2.0303    8.9101    0.0000 C   0  0  0  0  0  0  0  0  0  0  0  0
    3.1889    9.8628    0.0000 O   0  0  0  0  0  0  0  0  0  0  0  0
    2.7996    7.6225    0.0000 N   0  0  0  0  0  0  0  0  0  0  0  0
    7.6371    6.5686    0.0000 C   0  0  0  0  0  0  0  0  0  0  0  0
    9.1311    6.7031    0.0000 N   0  0  0  0  0  0  0  0  0  0  0  0
    6.7737    7.7952    0.0000 O   0  0  0  0  0  0  0  0  0  0  0  0
  1  2  1  0
  2  3  1  0
  2  4  1  0
  5  4  1  6
  5  6  1  0
  6  7  1  0
  7  8  2  0
  9  7  1  6
  9 10  1  0
 10 11  1  0
 11 12  1  0
 12 13  1  0
 13 14  2  0
 14 15  1  0
 15 16  2  0
 16 17  1  0
 17 18  1  0
 18 19  1  0
 19 20  1  0
 20 21  1  0
 21 22  1  0
 22 23  2  0
 22 24  1  0
 24 25  1  0
 25 26  1  0
 26 27  2  0
 26 28  1  0
 28 29  1  0
 29 30  1  0
 29 31  1  0
 29 32  1  0
 32 33  2  0
 32 34  1  0
 34 35  1  0
 35 36  1  1
 36 37  1  0
 37 38  2  0
 38 39  1  0
 39 40  2  0
 40 41  1  0
 41 42  2  0
 42 43  1  0
 43 44  2  0
 44 45  1  0
 45 46  2  0
 35 47  1  0
 47 48  2  0
 47 49  1  0
  5 50  1  0
 50 51  1  0
 50 52  2  0
 49  9  1  0
 17 13  1  0
 46 37  1  0
 46 41  1  0
M  END
>  <molecule_chembl_id>  (39) 
CHEMBL5077810

>  <canonical_smiles>  (39) 
CC(C)C[C@H](NC(=O)[C@@H]1COCc2cnnn2CCCCC(=O)NCC(=O)NC(C)(C)C(=O)N[C@@H](Cc2cccc3ccccc23)C(=O)N1)C(N)=O

>  <pchembl_value_mean>  (39) 
4.705

>  <inchi>  (39) 
InChI=1S/C36H49N9O7/c1-22(2)16-27(32(37)48)40-34(50)29-21-52-20-25-18-39-44-45(25)15-8-7-14-30(46)38-19-31(47)43-36(3,4)35(51)42-28(33(49)41-29)17-24-12-9-11-23-10-5-6-13-26(23)24/h5-6,9-13,18,22,27-29H,7-8,14-17,19-21H2,1-4H3,(H2,37,48)(H,38,46)(H,40,50)(H,41,49)(H,42,51)(H,43,47)/t27-,28-,29-/m0/s1

$$$$

     RDKit          2D

 53 57  0  0  0  0  0  0  0  0999 V2000
   10.2274    2.8889    0.0000 C   0  0  0  0  0  0  0  0  0  0  0  0
    9.3640    4.1154    0.0000 C   0  0  0  0  0  0  0  0  0  0  0  0
    9.9945    5.4765    0.0000 C   0  0  0  0  0  0  0  0  0  0  0  0
    7.8700    3.9810    0.0000 C   0  0  0  0  0  0  0  0  0  0  0  0
    7.0066    5.2076    0.0000 C   0  0  0  0  0  0  0  0  0  0  0  0
    5.5126    5.0731    0.0000 N   0  0  0  0  0  0  0  0  0  0  0  0
    4.6492    6.2997    0.0000 C   0  0  0  0  0  0  0  0  0  0  0  0
    5.2797    7.6607    0.0000 O   0  0  0  0  0  0  0  0  0  0  0  0
    3.1552    6.1652    0.0000 C   0  0  0  0  0  0  0  0  0  0  0  0
    3.0655    4.6679    0.0000 C   0  0  0  0  0  0  0  0  0  0  0  0
    2.5385    3.2636    0.0000 C   0  0  0  0  0  0  0  0  0  0  0  0
    1.6209    2.0770    0.0000 C   0  0  0  0  0  0  0  0  0  0  0  0
    0.3943    1.2135    0.0000 C   0  0  0  0  0  0  0  0  0  0  0  0
    1.2760    0.0000    0.0000 C   0  0  0  0  0  0  0  0  0  0  0  0
    0.3943   -1.2135    0.0000 N   0  0  0  0  0  0  0  0  0  0  0  0
   -1.0323   -0.7500    0.0000 N   0  0  0  0  0  0  0  0  0  0  0  0
   -1.0323    0.7500    0.0000 N   0  0  0  0  0  0  0  0  0  0  0  0
   -2.5321    0.7276    0.0000 C   0  0  0  0  0  0  0  0  0  0  0  0
   -3.9719    1.1482    0.0000 C   0  0  0  0  0  0  0  0  0  0  0  0
   -5.2238    1.9745    0.0000 C   0  0  0  0  0  0  0  0  0  0  0  0
   -6.1765    3.1332    0.0000 C   0  0  0  0  0  0  0  0  0  0  0  0
   -6.7453    4.5211    0.0000 C   0  0  0  0  0  0  0  0  0  0  0  0
   -8.2025    4.1655    0.0000 O   0  0  0  0  0  0  0  0  0  0  0  0
   -6.8798    6.0151    0.0000 N   0  0  0  0  0  0  0  0  0  0  0  0
   -6.5679    7.4823    0.0000 C   0  0  0  0  0  0  0  0  0  0  0  0
   -5.8374    8.7924    0.0000 C   0  0  0  0  0  0  0  0  0  0  0  0
   -7.0240    9.7100    0.0000 O   0  0  0  0  0  0  0  0  0  0  0  0
   -4.7532    9.8290    0.0000 N   0  0  0  0  0  0  0  0  0  0  0  0
   -5.8059   10.8976    0.0000 C   0  0  0  0  0  0  0  0  0  0  0  0
   -5.1150   12.2290    0.0000 C   0  0  0  0  0  0  0  0  0  0  0  0
   -3.6352   11.9832    0.0000 C   0  0  0  0  0  0  0  0  0  0  0  0
   -3.4117   10.5000    0.0000 C   0  0  0  0  0  0  0  0  0  0  0  0
   -1.9319   10.7457    0.0000 C   0  0  0  0  0  0  0  0  0  0  0  0
   -1.9544   12.2455    0.0000 O   0  0  0  0  0  0  0  0  0  0  0  0
   -0.4455   10.5444    0.0000 N   0  0  0  0  0  0  0  0  0  0  0  0
    0.9155    9.9138    0.0000 C   0  0  0  0  0  0  0  0  0  0  0  0
    1.7419   11.1657    0.0000 C   0  0  0  0  0  0  0  0  0  0  0  0
    1.0709   12.5073    0.0000 C   0  0  0  0  0  0  0  0  0  0  0  0
   -0.4264   12.5970    0.0000 C   0  0  0  0  0  0  0  0  0  0  0  0
   -1.0974   13.9385    0.0000 C   0  0  0  0  0  0  0  0  0  0  0  0
   -0.2710   15.1904    0.0000 C   0  0  0  0  0  0  0  0  0  0  0  0
    1.2263   15.1007    0.0000 C   0  0  0  0  0  0  0  0  0  0  0  0
    2.0526   16.3525    0.0000 C   0  0  0  0  0  0  0  0  0  0  0  0
    3.5500   16.2628    0.0000 C   0  0  0  0  0  0  0  0  0  0  0  0
    4.2209   14.9213    0.0000 C   0  0  0  0  0  0  0  0  0  0  0  0
    3.3946   13.6694    0.0000 C   0  0  0  0  0  0  0  0  0  0  0  0
    1.8973   13.7591    0.0000 C   0  0  0  0  0  0  0  0  0  0  0  0
    2.0303    8.9101    0.0000 C   0  0  0  0  0  0  0  0  0  0  0  0
    3.1889    9.8628    0.0000 O   0  0  0  0  0  0  0  0  0  0  0  0
    2.7996    7.6225    0.0000 N   0  0  0  0  0  0  0  0  0  0  0  0
    7.6371    6.5686    0.0000 C   0  0  0  0  0  0  0  0  0  0  0  0
    9.1311    6.7031    0.0000 N   0  0  0  0  0  0  0  0  0  0  0  0
    6.7737    7.7952    0.0000 O   0  0  0  0  0  0  0  0  0  0  0  0
  1  2  1  0
  2  3  1  0
  2  4  1  0
  5  4  1  6
  5  6  1  0
  6  7  1  0
  7  8  2  0
  9  7  1  1
  9 10  1  0
 10 11  1  0
 11 12  1  0
 12 13  1  0
 13 14  2  0
 14 15  1  0
 15 16  2  0
 16 17  1  0
 17 18  1  0
 18 19  1  0
 19 20  1  0
 20 21  1  0
 21 22  1  0
 22 23  2  0
 22 24  1  0
 24 25  1  0
 25 26  1  0
 26 27  2  0
 26 28  1  0
 28 29  1  0
 29 30  1  0
 30 31  1  0
 32 31  1  1
 32 33  1  0
 33 34  2  0
 33 35  1  0
 35 36  1  0
 36 37  1  1
 37 38  1  0
 38 39  2  0
 39 40  1  0
 40 41  2  0
 41 42  1  0
 42 43  2  0
 43 44  1  0
 44 45  2  0
 45 46  1  0
 46 47  2  0
 36 48  1  0
 48 49  2  0
 48 50  1  0
  5 51  1  0
 51 52  1  0
 51 53  2  0
 50  9  1  0
 17 13  1  0
 32 28  1  0
 47 38  1  0
 47 42  1  0
M  END
>  <molecule_chembl_id>  (40) 
CHEMBL5090614

>  <canonical_smiles>  (40) 
CC(C)C[C@H](NC(=O)[C@H]1CCCc2cnnn2CCCCC(=O)NCC(=O)N2CCC[C@H]2C(=O)N[C@@H](Cc2cccc3ccccc23)C(=O)N1)C(N)=O

>  <pchembl_value_mean>  (40) 
4.715

>  <inchi>  (40) 
InChI=1S/C38H51N9O6/c1-24(2)20-30(35(39)50)43-36(51)29-15-8-13-27-22-41-45-47(27)19-6-5-17-33(48)40-23-34(49)46-18-9-16-32(46)38(53)44-31(37(52)42-29)21-26-12-7-11-25-10-3-4-14-28(25)26/h3-4,7,10-12,14,22,24,29-32H,5-6,8-9,13,15-21,23H2,1-2H3,(H2,39,50)(H,40,48)(H,42,52)(H,43,51)(H,44,53)/t29-,30+,31+,32+/m1/s1

$$$$

     RDKit          2D

161171  0  0  0  0  0  0  0  0999 V2000
   -2.0657  -10.2343    0.0000 C   0  0  0  0  0  0  0  0  0  0  0  0
   -0.5699  -10.1222    0.0000 C   0  0  0  0  0  0  0  0  0  0  0  0
    0.2751  -11.3616    0.0000 C   0  0  0  0  0  0  0  0  0  0  0  0
    0.0810   -8.7708    0.0000 C   0  0  0  0  0  0  0  0  0  0  0  0
    1.5768   -8.6587    0.0000 C   0  0  0  0  0  0  0  0  0  0  0  0
    2.2276   -7.3072    0.0000 N   0  0  0  0  0  0  0  0  0  0  0  0
    3.7234   -7.1951    0.0000 C   0  0  0  0  0  0  0  0  0  0  0  0
    4.5684   -8.4345    0.0000 O   0  0  0  0  0  0  0  0  0  0  0  0
    4.3742   -5.8437    0.0000 C   0  0  0  0  0  0  0  0  0  0  0  0
    3.1041   -5.0456    0.0000 C   0  0  0  0  0  0  0  0  0  0  0  0
    2.0435   -3.9849    0.0000 N   0  0  0  0  0  0  0  0  0  0  0  0
    1.2454   -2.7149    0.0000 C   0  0  0  0  0  0  0  0  0  0  0  0
   -0.1060   -3.3657    0.0000 O   0  0  0  0  0  0  0  0  0  0  0  0
    0.7500   -1.2990    0.0000 C   0  0  0  0  0  0  0  0  0  0  0  0
    1.5000    0.0000    0.0000 C   0  0  0  0  0  0  0  0  0  0  0  0
    0.7500    1.2990    0.0000 C   0  0  0  0  0  0  0  0  0  0  0  0
   -0.7500    1.2990    0.0000 C   0  0  0  0  0  0  0  0  0  0  0  0
   -1.5000    0.0000    0.0000 C   0  0  0  0  0  0  0  0  0  0  0  0
   -0.7500   -1.2990    0.0000 C   0  0  0  0  0  0  0  0  0  0  0  0
   -2.7514    0.8271    0.0000 C   0  0  0  0  0  0  0  0  0  0  0  0
   -3.7181   -0.3198    0.0000 O   0  0  0  0  0  0  0  0  0  0  0  0
   -3.7782    1.9205    0.0000 N   0  0  0  0  0  0  0  0  0  0  0  0
   -4.5253    3.2212    0.0000 C   0  0  0  0  0  0  0  0  0  0  0  0
   -5.9040    2.6302    0.0000 C   0  0  0  0  0  0  0  0  0  0  0  0
   -6.0815    1.1408    0.0000 C   0  0  0  0  0  0  0  0  0  0  0  0
   -4.8803    0.2423    0.0000 C   0  0  0  0  0  0  0  0  0  0  0  0
   -5.0578   -1.2471    0.0000 C   0  0  0  0  0  0  0  0  0  0  0  0
   -6.4365   -1.8381    0.0000 C   0  0  0  0  0  0  0  0  0  0  0  0
   -6.6140   -3.3276    0.0000 C   0  0  0  0  0  0  0  0  0  0  0  0
   -7.9927   -3.9186    0.0000 C   0  0  0  0  0  0  0  0  0  0  0  0
   -9.1939   -3.0201    0.0000 C   0  0  0  0  0  0  0  0  0  0  0  0
   -9.0163   -1.5307    0.0000 C   0  0  0  0  0  0  0  0  0  0  0  0
   -7.6377   -0.9397    0.0000 C   0  0  0  0  0  0  0  0  0  0  0  0
   -7.4602    0.5498    0.0000 C   0  0  0  0  0  0  0  0  0  0  0  0
   -4.9522    4.6592    0.0000 C   0  0  0  0  0  0  0  0  0  0  0  0
   -6.4300    4.4021    0.0000 O   0  0  0  0  0  0  0  0  0  0  0  0
   -5.0361    6.1568    0.0000 N   0  0  0  0  0  0  0  0  0  0  0  0
   -4.7722    7.6335    0.0000 C   0  0  0  0  0  0  0  0  0  0  0  0
   -6.2082    8.0669    0.0000 C   0  0  0  0  0  0  0  0  0  0  0  0
   -6.5509    9.5273    0.0000 O   0  0  0  0  0  0  0  0  0  0  0  0
   -4.1750    9.0094    0.0000 C   0  0  0  0  0  0  0  0  0  0  0  0
   -5.4723    9.7624    0.0000 O   0  0  0  0  0  0  0  0  0  0  0  0
   -3.2765   10.2106    0.0000 N   0  0  0  0  0  0  0  0  0  0  0  0
   -2.1253   11.1722    0.0000 C   0  0  0  0  0  0  0  0  0  0  0  0
   -2.9467   12.4273    0.0000 C   0  0  0  0  0  0  0  0  0  0  0  0
   -2.2705   13.7662    0.0000 C   0  0  0  0  0  0  0  0  0  0  0  0
   -3.0919   15.0213    0.0000 C   0  0  0  0  0  0  0  0  0  0  0  0
   -2.4156   16.3602    0.0000 N   0  0  0  0  0  0  0  0  0  0  0  0
   -4.5895   14.9375    0.0000 O   0  0  0  0  0  0  0  0  0  0  0  0
   -0.7833   11.8423    0.0000 C   0  0  0  0  0  0  0  0  0  0  0  0
   -1.2931   13.2530    0.0000 O   0  0  0  0  0  0  0  0  0  0  0  0
    0.6770   12.1849    0.0000 N   0  0  0  0  0  0  0  0  0  0  0  0
    2.1770   12.1815    0.0000 C   0  0  0  0  0  0  0  0  0  0  0  0
    2.3546   13.6710    0.0000 C   0  0  0  0  0  0  0  0  0  0  0  0
    1.1534   14.5694    0.0000 C   0  0  0  0  0  0  0  0  0  0  0  0
   -0.2253   13.9785    0.0000 C   0  0  0  0  0  0  0  0  0  0  0  0
   -1.4264   14.8769    0.0000 C   0  0  0  0  0  0  0  0  0  0  0  0
   -1.2489   16.3664    0.0000 C   0  0  0  0  0  0  0  0  0  0  0  0
   -2.4501   17.2648    0.0000 C   0  0  0  0  0  0  0  0  0  0  0  0
   -2.2725   18.7543    0.0000 C   0  0  0  0  0  0  0  0  0  0  0  0
   -0.8939   19.3453    0.0000 C   0  0  0  0  0  0  0  0  0  0  0  0
    0.3073   18.4468    0.0000 C   0  0  0  0  0  0  0  0  0  0  0  0
    0.1298   16.9574    0.0000 C   0  0  0  0  0  0  0  0  0  0  0  0
    1.3309   16.0589    0.0000 C   0  0  0  0  0  0  0  0  0  0  0  0
    3.6358   11.8323    0.0000 C   0  0  0  0  0  0  0  0  0  0  0  0
    4.1520   13.2407    0.0000 O   0  0  0  0  0  0  0  0  0  0  0  0
    4.9747   11.1561    0.0000 N   0  0  0  0  0  0  0  0  0  0  0  0
    6.1216   10.1893    0.0000 C   0  0  0  0  0  0  0  0  0  0  0  0
    7.2150   11.2162    0.0000 C   0  0  0  0  0  0  0  0  0  0  0  0
    8.6510   10.7827    0.0000 C   0  0  0  0  0  0  0  0  0  0  0  0
    9.7444   11.8096    0.0000 C   0  0  0  0  0  0  0  0  0  0  0  0
    9.4018   13.2699    0.0000 C   0  0  0  0  0  0  0  0  0  0  0  0
    7.9658   13.7034    0.0000 C   0  0  0  0  0  0  0  0  0  0  0  0
    6.8724   12.6765    0.0000 C   0  0  0  0  0  0  0  0  0  0  0  0
    7.0146    8.9841    0.0000 C   0  0  0  0  0  0  0  0  0  0  0  0
    8.3154    9.7311    0.0000 O   0  0  0  0  0  0  0  0  0  0  0  0
    7.6056    7.6054    0.0000 N   0  0  0  0  0  0  0  0  0  0  0  0
    8.7712    6.7221    0.0000 C   0  0  0  0  0  0  0  0  0  0  0  0
    7.2806    6.1901    0.0000 C   0  0  0  0  0  0  0  0  0  0  0  0
    5.9458    6.0397    0.0000 C   0  0  0  0  0  0  0  0  0  0  0  0
    4.6779    5.5960    0.0000 C   0  0  0  0  0  0  0  0  0  0  0  0
    3.5406    4.8814    0.0000 C   0  0  0  0  0  0  0  0  0  0  0  0
    2.5907    3.9316    0.0000 N   0  0  0  0  0  0  0  0  0  0  0  0
    1.5931    2.4904    0.0000 C   0  0  0  0  0  0  0  0  0  0  0  0
   -0.1060    3.7487    0.0000 O   0  0  0  0  0  0  0  0  0  0  0  0
   10.1870    6.2267    0.0000 C   0  0  0  0  0  0  0  0  0  0  0  0
   10.8378    7.5782    0.0000 O   0  0  0  0  0  0  0  0  0  0  0  0
   11.4571    5.4287    0.0000 N   0  0  0  0  0  0  0  0  0  0  0  0
   12.5177    4.3680    0.0000 C   0  0  0  0  0  0  0  0  0  0  0  0
   13.6905    5.3032    0.0000 C   0  0  0  0  0  0  0  0  0  0  0  0
   15.0868    4.7552    0.0000 C   0  0  0  0  0  0  0  0  0  0  0  0
   15.3104    3.2720    0.0000 C   0  0  0  0  0  0  0  0  0  0  0  0
   16.7067    2.7240    0.0000 C   0  0  0  0  0  0  0  0  0  0  0  0
   17.8794    3.6592    0.0000 C   0  0  0  0  0  0  0  0  0  0  0  0
   17.6559    5.1425    0.0000 C   0  0  0  0  0  0  0  0  0  0  0  0
   16.2596    5.6905    0.0000 C   0  0  0  0  0  0  0  0  0  0  0  0
   13.3158    3.0979    0.0000 C   0  0  0  0  0  0  0  0  0  0  0  0
   14.6672    3.7487    0.0000 O   0  0  0  0  0  0  0  0  0  0  0  0
   13.8112    1.6821    0.0000 N   0  0  0  0  0  0  0  0  0  0  0  0
   13.9792    0.1915    0.0000 C   0  0  0  0  0  0  0  0  0  0  0  0
   15.4792    0.1915    0.0000 C   0  0  0  0  0  0  0  0  0  0  0  0
   13.8112   -1.2990    0.0000 C   0  0  0  0  0  0  0  0  0  0  0  0
   15.2736   -1.6328    0.0000 O   0  0  0  0  0  0  0  0  0  0  0  0
   13.3158   -2.7149    0.0000 N   0  0  0  0  0  0  0  0  0  0  0  0
   12.5177   -3.9849    0.0000 C   0  0  0  0  0  0  0  0  0  0  0  0
   13.6905   -4.9202    0.0000 C   0  0  0  0  0  0  0  0  0  0  0  0
   13.4669   -6.4034    0.0000 C   0  0  0  0  0  0  0  0  0  0  0  0
   14.6397   -7.3387    0.0000 C   0  0  0  0  0  0  0  0  0  0  0  0
   14.4161   -8.8219    0.0000 N   0  0  0  0  0  0  0  0  0  0  0  0
   15.5889   -9.7571    0.0000 C   0  0  0  0  0  0  0  0  0  0  0  0
   16.9852   -9.2091    0.0000 N   0  0  0  0  0  0  0  0  0  0  0  0
   15.3653  -11.2404    0.0000 N   0  0  0  0  0  0  0  0  0  0  0  0
   11.4571   -5.0456    0.0000 C   0  0  0  0  0  0  0  0  0  0  0  0
   12.3923   -6.2184    0.0000 O   0  0  0  0  0  0  0  0  0  0  0  0
   10.1870   -5.8437    0.0000 N   0  0  0  0  0  0  0  0  0  0  0  0
    8.7712   -6.3391    0.0000 C   0  0  0  0  0  0  0  0  0  0  0  0
    9.1050   -7.8015    0.0000 C   0  0  0  0  0  0  0  0  0  0  0  0
    8.0054   -8.8217    0.0000 C   0  0  0  0  0  0  0  0  0  0  0  0
    8.3392  -10.2841    0.0000 C   0  0  0  0  0  0  0  0  0  0  0  0
    7.2396  -11.3044    0.0000 N   0  0  0  0  0  0  0  0  0  0  0  0
    7.5734  -12.7668    0.0000 C   0  0  0  0  0  0  0  0  0  0  0  0
    9.0711  -12.8489    0.0000 N   0  0  0  0  0  0  0  0  0  0  0  0
    7.1376  -13.4343    0.0000 N   0  0  0  0  0  0  0  0  0  0  0  0
    7.2806   -6.5070    0.0000 C   0  0  0  0  0  0  0  0  0  0  0  0
    7.2806   -8.0070    0.0000 O   0  0  0  0  0  0  0  0  0  0  0  0
    5.7900   -6.3391    0.0000 N   0  0  0  0  0  0  0  0  0  0  0  0
    2.4217   -9.8980    0.0000 C   0  0  0  0  0  0  0  0  0  0  0  0
    3.9175   -9.7859    0.0000 O   0  0  0  0  0  0  0  0  0  0  0  0
    1.7709  -11.2495    0.0000 N   0  0  0  0  0  0  0  0  0  0  0  0
    2.6159  -12.4888    0.0000 C   0  0  0  0  0  0  0  0  0  0  0  0
    1.9651  -13.8403    0.0000 C   0  0  0  0  0  0  0  0  0  0  0  0
    2.8100  -15.0796    0.0000 O   0  0  0  0  0  0  0  0  0  0  0  0
    4.1117  -12.3767    0.0000 C   0  0  0  0  0  0  0  0  0  0  0  0
    4.7625  -11.0253    0.0000 O   0  0  0  0  0  0  0  0  0  0  0  0
    4.9567  -13.6161    0.0000 N   0  0  0  0  0  0  0  0  0  0  0  0
    6.4525  -13.5040    0.0000 C   0  0  0  0  0  0  0  0  0  0  0  0
    7.2975  -14.7434    0.0000 C   0  0  0  0  0  0  0  0  0  0  0  0
    8.7933  -14.6313    0.0000 C   0  0  0  0  0  0  0  0  0  0  0  0
    9.4441  -13.2798    0.0000 C   0  0  0  0  0  0  0  0  0  0  0  0
   10.9399  -13.1677    0.0000 C   0  0  0  0  0  0  0  0  0  0  0  0
   11.7849  -14.4071    0.0000 C   0  0  0  0  0  0  0  0  0  0  0  0
   13.2807  -14.2950    0.0000 C   0  0  0  0  0  0  0  0  0  0  0  0
   14.1257  -15.5343    0.0000 C   0  0  0  0  0  0  0  0  0  0  0  0
   13.4748  -16.8858    0.0000 C   0  0  0  0  0  0  0  0  0  0  0  0
   11.9790  -16.9979    0.0000 C   0  0  0  0  0  0  0  0  0  0  0  0
   11.1341  -15.7585    0.0000 C   0  0  0  0  0  0  0  0  0  0  0  0
    9.6382  -15.8706    0.0000 C   0  0  0  0  0  0  0  0  0  0  0  0
    7.1033  -12.1525    0.0000 C   0  0  0  0  0  0  0  0  0  0  0  0
    6.2583  -10.9132    0.0000 O   0  0  0  0  0  0  0  0  0  0  0  0
    8.5991  -12.0404    0.0000 N   0  0  0  0  0  0  0  0  0  0  0  0
    9.2499  -10.6890    0.0000 C   0  0  0  0  0  0  0  0  0  0  0  0
   10.7457  -10.5769    0.0000 C   0  0  0  0  0  0  0  0  0  0  0  0
   11.3966   -9.2254    0.0000 C   0  0  0  0  0  0  0  0  0  0  0  0
   12.8924   -9.1134    0.0000 C   0  0  0  0  0  0  0  0  0  0  0  0
   13.5432   -7.7619    0.0000 N   0  0  0  0  0  0  0  0  0  0  0  0
   15.0390   -7.6498    0.0000 C   0  0  0  0  0  0  0  0  0  0  0  0
   15.8840   -8.8892    0.0000 N   0  0  0  0  0  0  0  0  0  0  0  0
   15.6898   -6.2983    0.0000 N   0  0  0  0  0  0  0  0  0  0  0  0
    8.4050   -9.4496    0.0000 C   0  0  0  0  0  0  0  0  0  0  0  0
    9.3635   -8.2958    0.0000 N   0  0  0  0  0  0  0  0  0  0  0  0
    6.9092   -9.5617    0.0000 O   0  0  0  0  0  0  0  0  0  0  0  0
  1  2  1  0
  2  3  1  0
  2  4  1  0
  5  4  1  1
  5  6  1  0
  6  7  1  0
  7  8  2  0
  9  7  1  6
  9 10  1  0
 10 11  1  0
 11 12  1  0
 12 13  2  0
 12 14  1  0
 14 15  2  0
 15 16  1  0
 16 17  2  0
 17 18  1  0
 18 19  2  0
 18 20  1  0
 20 21  2  0
 20 22  1  0
 22 23  1  0
 23 24  1  6
 24 25  1  0
 25 26  2  0
 26 27  1  0
 27 28  2  0
 28 29  1  0
 29 30  2  0
 30 31  1  0
 31 32  2  0
 32 33  1  0
 33 34  2  0
 23 35  1  0
 35 36  2  0
 35 37  1  0
 37 38  1  0
 38 39  1  1
 39 40  1  0
 38 41  1  0
 41 42  2  0
 41 43  1  0
 43 44  1  0
 44 45  1  1
 45 46  1  0
 46 47  1  0
 47 48  1  0
 47 49  2  0
 44 50  1  0
 50 51  2  0
 50 52  1  0
 52 53  1  0
 53 54  1  6
 54 55  1  0
 55 56  2  0
 56 57  1  0
 57 58  2  0
 58 59  1  0
 59 60  2  0
 60 61  1  0
 61 62  2  0
 62 63  1  0
 63 64  2  0
 53 65  1  0
 65 66  2  0
 65 67  1  0
 67 68  1  0
 68 69  1  1
 69 70  2  0
 70 71  1  0
 71 72  2  0
 72 73  1  0
 73 74  2  0
 68 75  1  0
 75 76  2  0
 75 77  1  0
 78 77  1  6
 78 79  1  0
 79 80  1  0
 80 81  1  0
 81 82  1  0
 82 83  1  0
 83 84  1  0
 84 85  2  0
 78 86  1  0
 86 87  2  0
 86 88  1  0
 88 89  1  0
 89 90  1  6
 90 91  1  0
 91 92  2  0
 92 93  1  0
 93 94  2  0
 94 95  1  0
 95 96  2  0
 89 97  1  0
 97 98  2  0
 97 99  1  0
 99100  1  0
100101  1  1
100102  1  0
102103  2  0
102104  1  0
104105  1  0
105106  1  6
106107  1  0
107108  1  0
108109  1  0
109110  1  0
110111  2  0
110112  1  0
105113  1  0
113114  2  0
113115  1  0
115116  1  0
116117  1  1
117118  1  0
118119  1  0
119120  1  0
120121  1  0
121122  2  0
121123  1  0
116124  1  0
124125  2  0
124126  1  0
  5127  1  0
127128  2  0
127129  1  0
129130  1  0
130131  1  6
131132  1  0
130133  1  0
133134  2  0
133135  1  0
135136  1  0
136137  1  1
137138  1  0
138139  2  0
139140  1  0
140141  2  0
141142  1  0
142143  2  0
143144  1  0
144145  2  0
145146  1  0
146147  2  0
136148  1  0
148149  2  0
148150  1  0
150151  1  0
151152  1  1
152153  1  0
153154  1  0
154155  1  0
155156  1  0
156157  2  0
156158  1  0
151159  1  0
159160  1  0
159161  2  0
126  9  1  0
147138  1  0
 19 14  1  0
 34 25  1  0
 64 55  1  0
 74 69  1  0
 96 91  1  0
146141  1  0
 84 16  1  0
 33 28  1  0
 63 58  1  0
M  END
>  <molecule_chembl_id>  (41) 
CHEMBL4873891

>  <canonical_smiles>  (41) 
CC(C)C[C@@H](NC(=O)[C@@H]1CNC(=O)c2cc3cc(c2)C(=O)N[C@H](Cc2ccc4ccccc4c2)C(=O)N[C@@H](CO)C(=O)N[C@@H](CCC(N)=O)C(=O)N[C@H](Cc2ccc4ccccc4c2)C(=O)N[C@@H](c2ccccc2)C(=O)N[C@@H](CCCCNC3=O)C(=O)N[C@H](Cc2ccccc2)C(=O)N[C@@H](C)C(=O)N[C@H](CCCNC(=N)N)C(=O)N[C@@H](CCCNC(=N)N)C(=O)N1)C(=O)N[C@@H](CO)C(=O)N[C@H](Cc1ccc2ccccc2c1)C(=O)N[C@H](CCCNC(=N)N)C(N)=O

>  <pchembl_value_mean>  (41) 
4.75

>  <inchi>  (41) 
InChI=1S/C112H140N28O21/c1-61(2)47-82(102(154)138-89(60-142)108(160)136-85(53-65-36-39-68-24-11-14-29-72(68)49-65)103(155)127-77(92(114)144)32-18-44-122-110(115)116)133-106(158)87-58-125-95(147)75-55-74-56-76(57-75)96(148)132-84(52-64-35-38-67-23-10-13-28-71(67)48-64)104(156)139-88(59-141)107(159)130-81(41-42-90(113)143)100(152)135-86(54-66-37-40-69-25-12-15-30-73(69)50-66)105(157)140-91(70-26-8-5-9-27-70)109(161)131-78(31-16-17-43-121-94(74)146)98(150)134-83(51-63-21-6-4-7-22-63)101(153)126-62(3)93(145)128-79(33-19-45-123-111(117)118)97(149)129-80(99(151)137-87)34-20-46-124-112(119)120/h4-15,21-30,35-40,48-50,55-57,61-62,77-89,91,141-142H,16-20,31-34,41-47,51-54,58-60H2,1-3H3,(H2,113,143)(H2,114,144)(H,121,146)(H,125,147)(H,126,153)(H,127,155)(H,128,145)(H,129,149)(H,130,159)(H,131,161)(H,132,148)(H,133,158)(H,134,150)(H,135,152)(H,136,160)(H,137,151)(H,138,154)(H,139,156)(H,140,157)(H4,115,116,122)(H4,117,118,123)(H4,119,120,124)/t62-,77+,78-,79+,80-,81-,82+,83+,84+,85+,86+,87-,88-,89-,91-/m0/s1

$$$$

     RDKit          2D

 42 48  0  0  0  0  0  0  0  0999 V2000
    1.3814  -10.4029    0.0000 C   0  0  0  0  0  0  0  0  0  0  0  0
    1.5382   -8.9111    0.0000 C   0  0  0  0  0  0  0  0  0  0  0  0
    2.9085   -8.3010    0.0000 C   0  0  0  0  0  0  0  0  0  0  0  0
    4.1220   -9.1827    0.0000 O   0  0  0  0  0  0  0  0  0  0  0  0
    3.0653   -6.8092    0.0000 N   0  0  0  0  0  0  0  0  0  0  0  0
    4.3643   -6.0592    0.0000 C   0  0  0  0  0  0  0  0  0  0  0  0
    4.0524   -4.5920    0.0000 C   0  0  0  0  0  0  0  0  0  0  0  0
    2.5607   -4.4352    0.0000 C   0  0  0  0  0  0  0  0  0  0  0  0
    1.9506   -5.8055    0.0000 C   0  0  0  0  0  0  0  0  0  0  0  0
    2.9489   -2.9863    0.0000 C   0  0  0  0  0  0  0  0  0  0  0  0
    1.5000   -2.5981    0.0000 N   0  0  0  0  0  0  0  0  0  0  0  0
    0.7500   -1.2990    0.0000 C   0  0  0  0  0  0  0  0  0  0  0  0
    1.5000    0.0000    0.0000 N   0  0  0  0  0  0  0  0  0  0  0  0
    0.7500    1.2990    0.0000 C   0  0  0  0  0  0  0  0  0  0  0  0
    1.5000    2.5981    0.0000 N   0  0  0  0  0  0  0  0  0  0  0  0
    3.0000    2.5981    0.0000 C   0  0  0  0  0  0  0  0  0  0  0  0
    3.7500    1.2990    0.0000 C   0  0  0  0  0  0  0  0  0  0  0  0
    5.2500    1.2990    0.0000 C   0  0  0  0  0  0  0  0  0  0  0  0
    6.0000    2.5981    0.0000 N   0  0  0  0  0  0  0  0  0  0  0  0
    7.5000    2.5981    0.0000 C   0  0  0  0  0  0  0  0  0  0  0  0
    5.2500    3.8971    0.0000 C   0  0  0  0  0  0  0  0  0  0  0  0
    3.7500    3.8971    0.0000 C   0  0  0  0  0  0  0  0  0  0  0  0
   -0.7500    1.2990    0.0000 N   0  0  0  0  0  0  0  0  0  0  0  0
   -1.5000    0.0000    0.0000 C   0  0  0  0  0  0  0  0  0  0  0  0
   -3.0000    0.0000    0.0000 C   0  0  0  0  0  0  0  0  0  0  0  0
   -3.7500    1.2990    0.0000 F   0  0  0  0  0  0  0  0  0  0  0  0
   -3.7500   -1.2990    0.0000 C   0  0  0  0  0  0  0  0  0  0  0  0
   -5.2500   -1.2990    0.0000 C   0  0  0  0  0  0  0  0  0  0  0  0
   -6.0000    0.0000    0.0000 C   0  0  0  0  0  0  0  0  0  0  0  0
   -5.2500    1.2990    0.0000 C   0  0  0  0  0  0  0  0  0  0  0  0
   -7.5000    0.0000    0.0000 C   0  0  0  0  0  0  0  0  0  0  0  0
   -8.2500   -1.2990    0.0000 C   0  0  0  0  0  0  0  0  0  0  0  0
   -7.5000   -2.5981    0.0000 C   0  0  0  0  0  0  0  0  0  0  0  0
   -7.9635   -4.0247    0.0000 N   0  0  0  0  0  0  0  0  0  0  0  0
   -6.7500   -4.9063    0.0000 N   0  0  0  0  0  0  0  0  0  0  0  0
   -5.5365   -4.0247    0.0000 C   0  0  0  0  0  0  0  0  0  0  0  0
   -6.0000   -2.5981    0.0000 C   0  0  0  0  0  0  0  0  0  0  0  0
   -3.0000   -2.5981    0.0000 C   0  0  0  0  0  0  0  0  0  0  0  0
   -3.7500   -3.8971    0.0000 Cl  0  0  0  0  0  0  0  0  0  0  0  0
   -1.5000   -2.5981    0.0000 C   0  0  0  0  0  0  0  0  0  0  0  0
   -0.7500   -1.2990    0.0000 C   0  0  0  0  0  0  0  0  0  0  0  0
    1.1118   -4.0470    0.0000 C   0  0  0  0  0  0  0  0  0  0  0  0
  1  2  2  0
  2  3  1  0
  3  4  2  0
  3  5  1  0
  5  6  1  0
  6  7  1  0
  7  8  1  0
  8  9  1  0
  8 10  1  0
 10 11  1  0
 11 12  1  0
 12 13  2  0
 13 14  1  0
 14 15  1  0
 15 16  1  0
 16 17  1  0
 17 18  1  0
 18 19  1  0
 19 20  1  0
 19 21  1  0
 21 22  1  0
 14 23  2  0
 23 24  1  0
 24 25  2  0
 25 26  1  0
 25 27  1  0
 27 28  1  0
 28 29  2  0
 29 30  1  0
 29 31  1  0
 31 32  2  0
 32 33  1  0
 33 34  1  0
 34 35  1  0
 35 36  2  0
 36 37  1  0
 27 38  2  0
 38 39  1  0
 38 40  1  0
 40 41  2  0
 11 42  1  0
  9  5  1  0
 41 12  1  0
 42  8  1  0
 22 16  1  0
 41 24  1  0
 37 28  1  0
 37 33  2  0
M  END
>  <molecule_chembl_id>  (42) 
CHEMBL5208763

>  <canonical_smiles>  (42) 
C=CC(=O)N1CCC2(C1)CN(c1nc(NC3CCN(C)CC3)nc3c(F)c(-c4c(C)ccc5[nH]ncc45)c(Cl)cc13)C2

>  <pchembl_value_mean>  (42) 
4.75

>  <inchi>  (42) 
InChI=1S/C31H34ClFN8O/c1-4-24(42)40-12-9-31(15-40)16-41(17-31)29-20-13-22(32)26(25-18(2)5-6-23-21(25)14-34-38-23)27(33)28(20)36-30(37-29)35-19-7-10-39(3)11-8-19/h4-6,13-14,19H,1,7-12,15-17H2,2-3H3,(H,34,38)(H,35,36,37)

$$$$

     RDKit          2D

 33 36  0  0  0  0  0  0  0  0999 V2000
   -3.3966  -12.9962    0.0000 C   0  0  0  0  0  0  0  0  0  0  0  0
   -3.0847  -11.5290    0.0000 C   0  0  0  0  0  0  0  0  0  0  0  0
   -1.6581  -11.0654    0.0000 C   0  0  0  0  0  0  0  0  0  0  0  0
   -1.3463   -9.5982    0.0000 S   0  0  0  0  0  0  0  0  0  0  0  0
   -2.8135   -9.2863    0.0000 O   0  0  0  0  0  0  0  0  0  0  0  0
    0.1209   -9.9101    0.0000 O   0  0  0  0  0  0  0  0  0  0  0  0
   -1.0344   -8.1310    0.0000 N   0  0  0  0  0  0  0  0  0  0  0  0
   -2.1491   -7.1273    0.0000 C   0  0  0  0  0  0  0  0  0  0  0  0
   -3.5757   -7.5908    0.0000 C   0  0  0  0  0  0  0  0  0  0  0  0
   -4.6904   -6.5871    0.0000 C   0  0  0  0  0  0  0  0  0  0  0  0
   -4.3786   -5.1199    0.0000 C   0  0  0  0  0  0  0  0  0  0  0  0
   -5.4933   -4.1162    0.0000 F   0  0  0  0  0  0  0  0  0  0  0  0
   -2.9520   -4.6564    0.0000 C   0  0  0  0  0  0  0  0  0  0  0  0
   -2.6401   -3.1891    0.0000 C   0  0  0  0  0  0  0  0  0  0  0  0
   -3.7548   -2.1855    0.0000 O   0  0  0  0  0  0  0  0  0  0  0  0
   -1.2135   -2.7256    0.0000 C   0  0  0  0  0  0  0  0  0  0  0  0
   -0.0000   -3.6073    0.0000 C   0  0  0  0  0  0  0  0  0  0  0  0
    1.2135   -2.7256    0.0000 N   0  0  0  0  0  0  0  0  0  0  0  0
    0.7500   -1.2990    0.0000 C   0  0  0  0  0  0  0  0  0  0  0  0
    1.5000    0.0000    0.0000 N   0  0  0  0  0  0  0  0  0  0  0  0
    0.7500    1.2990    0.0000 C   0  0  0  0  0  0  0  0  0  0  0  0
   -0.7500    1.2990    0.0000 C   0  0  0  0  0  0  0  0  0  0  0  0
   -1.5000    2.5981    0.0000 C   0  0  0  0  0  0  0  0  0  0  0  0
   -0.7500    3.8971    0.0000 C   0  0  0  0  0  0  0  0  0  0  0  0
   -1.5000    5.1962    0.0000 C   0  0  0  0  0  0  0  0  0  0  0  0
   -3.0000    5.1962    0.0000 C   0  0  0  0  0  0  0  0  0  0  0  0
   -3.7500    6.4952    0.0000 Cl  0  0  0  0  0  0  0  0  0  0  0  0
   -3.7500    3.8971    0.0000 C   0  0  0  0  0  0  0  0  0  0  0  0
   -3.0000    2.5981    0.0000 C   0  0  0  0  0  0  0  0  0  0  0  0
   -1.5000    0.0000    0.0000 C   0  0  0  0  0  0  0  0  0  0  0  0
   -0.7500   -1.2990    0.0000 C   0  0  0  0  0  0  0  0  0  0  0  0
   -1.8373   -5.6601    0.0000 C   0  0  0  0  0  0  0  0  0  0  0  0
   -0.4107   -5.1965    0.0000 F   0  0  0  0  0  0  0  0  0  0  0  0
  1  2  1  0
  2  3  1  0
  3  4  1  0
  4  5  2  0
  4  6  2  0
  4  7  1  0
  7  8  1  0
  8  9  2  0
  9 10  1  0
 10 11  2  0
 11 12  1  0
 11 13  1  0
 13 14  1  0
 14 15  2  0
 14 16  1  0
 16 17  2  0
 17 18  1  0
 18 19  1  0
 19 20  2  0
 20 21  1  0
 21 22  2  0
 22 23  1  0
 23 24  2  0
 24 25  1  0
 25 26  2  0
 26 27  1  0
 26 28  1  0
 28 29  2  0
 22 30  1  0
 30 31  2  0
 13 32  2  0
 32 33  1  0
 32  8  1  0
 31 16  1  0
 31 19  1  0
 29 23  1  0
M  END
>  <molecule_chembl_id>  (43) 
CHEMBL1229517

>  <canonical_smiles>  (43) 
CCCS(=O)(=O)Nc1ccc(F)c(C(=O)c2c[nH]c3ncc(-c4ccc(Cl)cc4)cc23)c1F

>  <pchembl_value_mean>  (43) 
4.78

>  <inchi>  (43) 
InChI=1S/C23H18ClF2N3O3S/c1-2-9-33(31,32)29-19-8-7-18(25)20(21(19)26)22(30)17-12-28-23-16(17)10-14(11-27-23)13-3-5-15(24)6-4-13/h3-8,10-12,29H,2,9H2,1H3,(H,27,28)

$$$$

     RDKit          2D

 23 24  0  0  0  0  0  0  0  0999 V2000
    3.7500   -1.2990    0.0000 C   0  0  0  0  0  0  0  0  0  0  0  0
    3.0000    0.0000    0.0000 O   0  0  0  0  0  0  0  0  0  0  0  0
    1.5000    0.0000    0.0000 C   0  0  0  0  0  0  0  0  0  0  0  0
    0.7500   -1.2990    0.0000 C   0  0  0  0  0  0  0  0  0  0  0  0
   -0.7500   -1.2990    0.0000 C   0  0  0  0  0  0  0  0  0  0  0  0
   -1.5000   -2.5981    0.0000 C   0  0  0  0  0  0  0  0  0  0  0  0
   -3.0000   -2.5981    0.0000 C   0  0  0  0  0  0  0  0  0  0  0  0
   -3.7500   -3.8971    0.0000 C   0  0  0  0  0  0  0  0  0  0  0  0
   -3.0000   -5.1962    0.0000 O   0  0  0  0  0  0  0  0  0  0  0  0
   -5.2500   -3.8971    0.0000 C   0  0  0  0  0  0  0  0  0  0  0  0
   -6.0000   -2.5981    0.0000 C   0  0  0  0  0  0  0  0  0  0  0  0
   -7.5000   -2.5981    0.0000 C   0  0  0  0  0  0  0  0  0  0  0  0
   -8.2500   -3.8971    0.0000 C   0  0  0  0  0  0  0  0  0  0  0  0
   -9.7500   -3.8971    0.0000 F   0  0  0  0  0  0  0  0  0  0  0  0
   -7.5000   -5.1962    0.0000 C   0  0  0  0  0  0  0  0  0  0  0  0
   -6.0000   -5.1962    0.0000 C   0  0  0  0  0  0  0  0  0  0  0  0
   -1.5000    0.0000    0.0000 C   0  0  0  0  0  0  0  0  0  0  0  0
   -0.7500    1.2990    0.0000 C   0  0  0  0  0  0  0  0  0  0  0  0
   -1.5000    2.5981    0.0000 O   0  0  0  0  0  0  0  0  0  0  0  0
   -0.7500    3.8971    0.0000 C   0  0  0  0  0  0  0  0  0  0  0  0
    0.7500    1.2990    0.0000 C   0  0  0  0  0  0  0  0  0  0  0  0
    1.5000    2.5981    0.0000 O   0  0  0  0  0  0  0  0  0  0  0  0
    3.0000    2.5981    0.0000 C   0  0  0  0  0  0  0  0  0  0  0  0
  1  2  1  0
  2  3  1  0
  3  4  2  0
  4  5  1  0
  5  6  1  0
  6  7  2  0
  7  8  1  0
  8  9  2  0
  8 10  1  0
 10 11  2  0
 11 12  1  0
 12 13  2  0
 13 14  1  0
 13 15  1  0
 15 16  2  0
  5 17  2  0
 17 18  1  0
 18 19  1  0
 19 20  1  0
 18 21  2  0
 21 22  1  0
 22 23  1  0
 21  3  1  0
 16 10  1  0
M  END
>  <molecule_chembl_id>  (44) 
CHEMBL59026

>  <canonical_smiles>  (44) 
COc1cc(/C=C/C(=O)c2ccc(F)cc2)cc(OC)c1OC

>  <pchembl_value_mean>  (44) 
4.8

>  <inchi>  (44) 
InChI=1S/C18H17FO4/c1-21-16-10-12(11-17(22-2)18(16)23-3)4-9-15(20)13-5-7-14(19)8-6-13/h4-11H,1-3H3/b9-4+

$$$$

     RDKit          2D

 48 54  0  0  0  0  0  0  0  0999 V2000
   -3.3818  -11.6074    0.0000 C   0  0  0  0  0  0  0  0  0  0  0  0
   -2.1424  -10.7624    0.0000 C   0  0  0  0  0  0  0  0  0  0  0  0
   -0.7910  -11.4132    0.0000 C   0  0  0  0  0  0  0  0  0  0  0  0
    0.4484  -10.5682    0.0000 C   0  0  0  0  0  0  0  0  0  0  0  0
    1.7998  -11.2191    0.0000 N   0  0  0  0  0  0  0  0  0  0  0  0
    0.3363   -9.0724    0.0000 N   0  0  0  0  0  0  0  0  0  0  0  0
   -1.0152   -8.4216    0.0000 C   0  0  0  0  0  0  0  0  0  0  0  0
   -1.1273   -6.9258    0.0000 C   0  0  0  0  0  0  0  0  0  0  0  0
   -2.4787   -6.2750    0.0000 C   0  0  0  0  0  0  0  0  0  0  0  0
   -2.5908   -4.7792    0.0000 C   0  0  0  0  0  0  0  0  0  0  0  0
   -4.0307   -4.3423    0.0000 N   0  0  0  0  0  0  0  0  0  0  0  0
   -4.2543   -2.8590    0.0000 C   0  0  0  0  0  0  0  0  0  0  0  0
   -5.6506   -2.3110    0.0000 O   0  0  0  0  0  0  0  0  0  0  0  0
   -5.8742   -0.8278    0.0000 C   0  0  0  0  0  0  0  0  0  0  0  0
   -7.2705   -0.2797    0.0000 C   0  0  0  0  0  0  0  0  0  0  0  0
   -8.5346   -1.0873    0.0000 C   0  0  0  0  0  0  0  0  0  0  0  0
   -9.6932   -0.1346    0.0000 C   0  0  0  0  0  0  0  0  0  0  0  0
   -9.1452    1.2617    0.0000 C   0  0  0  0  0  0  0  0  0  0  0  0
   -7.6479    1.1720    0.0000 N   0  0  0  0  0  0  0  0  0  0  0  0
   -6.6952    2.3306    0.0000 C   0  0  0  0  0  0  0  0  0  0  0  0
   -3.0815   -1.9238    0.0000 N   0  0  0  0  0  0  0  0  0  0  0  0
   -1.6852   -2.4718    0.0000 C   0  0  0  0  0  0  0  0  0  0  0  0
   -1.3515   -3.9342    0.0000 C   0  0  0  0  0  0  0  0  0  0  0  0
   -0.0000   -4.5850    0.0000 C   0  0  0  0  0  0  0  0  0  0  0  0
    0.1121   -6.0808    0.0000 C   0  0  0  0  0  0  0  0  0  0  0  0
    1.4635   -6.7316    0.0000 Cl  0  0  0  0  0  0  0  0  0  0  0  0
    1.3515   -3.9342    0.0000 O   0  0  0  0  0  0  0  0  0  0  0  0
    1.6852   -2.4718    0.0000 C   0  0  0  0  0  0  0  0  0  0  0  0
    0.7500   -1.2990    0.0000 C   0  0  0  0  0  0  0  0  0  0  0  0
    1.5000    0.0000    0.0000 C   0  0  0  0  0  0  0  0  0  0  0  0
    0.7500    1.2990    0.0000 N   0  0  0  0  0  0  0  0  0  0  0  0
    1.5000    2.5981    0.0000 C   0  0  0  0  0  0  0  0  0  0  0  0
    0.7500    3.8971    0.0000 O   0  0  0  0  0  0  0  0  0  0  0  0
    3.0000    2.5981    0.0000 C   0  0  0  0  0  0  0  0  0  0  0  0
    3.7500    1.2990    0.0000 C   0  0  0  0  0  0  0  0  0  0  0  0
    5.2500    1.2990    0.0000 C   0  0  0  0  0  0  0  0  0  0  0  0
    6.0000   -0.0000    0.0000 N   0  0  0  0  0  0  0  0  0  0  0  0
    6.0000    2.5981    0.0000 C   0  0  0  0  0  0  0  0  0  0  0  0
    5.2500    3.8971    0.0000 C   0  0  0  0  0  0  0  0  0  0  0  0
    3.7500    3.8971    0.0000 O   0  0  0  0  0  0  0  0  0  0  0  0
   -0.7500    1.2990    0.0000 C   0  0  0  0  0  0  0  0  0  0  0  0
   -1.5000    0.0000    0.0000 C   0  0  0  0  0  0  0  0  0  0  0  0
   -0.7500   -1.2990    0.0000 N   0  0  0  0  0  0  0  0  0  0  0  0
   -2.2545   -9.2666    0.0000 C   0  0  0  0  0  0  0  0  0  0  0  0
   -3.6060   -8.6157    0.0000 C   0  0  0  0  0  0  0  0  0  0  0  0
   -4.9574   -7.9649    0.0000 F   0  0  0  0  0  0  0  0  0  0  0  0
   -2.9552   -7.2643    0.0000 F   0  0  0  0  0  0  0  0  0  0  0  0
   -4.2568   -9.9672    0.0000 F   0  0  0  0  0  0  0  0  0  0  0  0
  1  2  1  0
  2  3  2  0
  3  4  1  0
  4  5  1  0
  4  6  2  0
  6  7  1  0
  7  8  1  0
  8  9  2  0
  9 10  1  0
 10 11  2  0
 11 12  1  0
 12 13  1  0
 13 14  1  0
 15 14  1  6
 15 16  1  0
 16 17  1  0
 17 18  1  0
 18 19  1  0
 19 20  1  0
 12 21  2  0
 21 22  1  0
 22 23  2  0
 23 24  1  0
 24 25  2  0
 25 26  1  0
 24 27  1  0
 27 28  1  0
 29 28  1  1
 29 30  1  0
 30 31  1  0
 31 32  1  0
 32 33  2  0
 32 34  1  0
 34 35  1  0
 35 36  1  0
 36 37  1  0
 36 38  1  0
 38 39  1  0
 39 40  1  0
 31 41  1  0
 41 42  1  0
 42 43  1  0
  7 44  2  0
 44 45  1  0
 45 46  1  0
 45 47  1  0
 45 48  1  0
 44  2  1  0
 25  8  1  0
 43 29  1  0
 23 10  1  0
 40 34  1  0
 19 15  1  0
 43 22  1  0
M  END
>  <molecule_chembl_id>  (45) 
CHEMBL5423141

>  <canonical_smiles>  (45) 
Cc1cc(N)nc(-c2cc3nc(OC[C@@H]4CCCN4C)nc4c3c(c2Cl)OC[C@@H]2CN(C(=O)C3CC(N)CCO3)CCN42)c1C(F)(F)F

>  <pchembl_value_mean>  (45) 
4.85

>  <inchi>  (45) 
InChI=1S/C32H38ClF3N8O4/c1-16-10-23(38)40-27(25(16)32(34,35)36)20-12-21-24-28(26(20)33)47-15-19-13-43(30(45)22-11-17(37)5-9-46-22)7-8-44(19)29(24)41-31(39-21)48-14-18-4-3-6-42(18)2/h10,12,17-19,22H,3-9,11,13-15,37H2,1-2H3,(H2,38,40)/t17?,18-,19-,22?/m0/s1

$$$$

     RDKit          2D

 32 35  0  0  0  0  0  0  0  0999 V2000
   -7.1818  -12.0600    0.0000 C   0  0  0  0  0  0  0  0  0  0  0  0
   -6.8699  -10.5928    0.0000 C   0  0  0  0  0  0  0  0  0  0  0  0
   -5.4433  -10.1293    0.0000 C   0  0  0  0  0  0  0  0  0  0  0  0
   -4.3286  -11.1330    0.0000 O   0  0  0  0  0  0  0  0  0  0  0  0
   -5.1315   -8.6621    0.0000 N   0  0  0  0  0  0  0  0  0  0  0  0
   -5.9484   -7.4041    0.0000 C   0  0  0  0  0  0  0  0  0  0  0  0
   -4.6904   -6.5871    0.0000 C   0  0  0  0  0  0  0  0  0  0  0  0
   -4.3786   -5.1199    0.0000 N   0  0  0  0  0  0  0  0  0  0  0  0
   -2.9520   -4.6564    0.0000 C   0  0  0  0  0  0  0  0  0  0  0  0
   -1.8373   -5.6601    0.0000 O   0  0  0  0  0  0  0  0  0  0  0  0
   -2.6401   -3.1891    0.0000 C   0  0  0  0  0  0  0  0  0  0  0  0
   -1.2135   -2.7256    0.0000 N   0  0  0  0  0  0  0  0  0  0  0  0
   -0.0000   -3.6073    0.0000 C   0  0  0  0  0  0  0  0  0  0  0  0
    1.2135   -2.7256    0.0000 C   0  0  0  0  0  0  0  0  0  0  0  0
    2.6401   -3.1891    0.0000 C   0  0  0  0  0  0  0  0  0  0  0  0
    3.7548   -2.1855    0.0000 O   0  0  0  0  0  0  0  0  0  0  0  0
    2.9520   -4.6564    0.0000 N   0  0  0  0  0  0  0  0  0  0  0  0
    4.3786   -5.1199    0.0000 C   0  0  0  0  0  0  0  0  0  0  0  0
    4.6904   -6.5871    0.0000 C   0  0  0  0  0  0  0  0  0  0  0  0
    3.5757   -7.5908    0.0000 C   0  0  0  0  0  0  0  0  0  0  0  0
    3.8876   -9.0580    0.0000 C   0  0  0  0  0  0  0  0  0  0  0  0
    5.3142   -9.5216    0.0000 C   0  0  0  0  0  0  0  0  0  0  0  0
    6.4289   -8.5179    0.0000 C   0  0  0  0  0  0  0  0  0  0  0  0
    6.1170   -7.0506    0.0000 C   0  0  0  0  0  0  0  0  0  0  0  0
    0.7500   -1.2990    0.0000 C   0  0  0  0  0  0  0  0  0  0  0  0
    1.5000    0.0000    0.0000 C   0  0  0  0  0  0  0  0  0  0  0  0
    0.7500    1.2990    0.0000 C   0  0  0  0  0  0  0  0  0  0  0  0
    1.5000    2.5981    0.0000 Br  0  0  0  0  0  0  0  0  0  0  0  0
   -0.7500    1.2990    0.0000 C   0  0  0  0  0  0  0  0  0  0  0  0
   -1.5000    0.0000    0.0000 C   0  0  0  0  0  0  0  0  0  0  0  0
   -0.7500   -1.2990    0.0000 C   0  0  0  0  0  0  0  0  0  0  0  0
   -3.8735   -7.8451    0.0000 C   0  0  0  0  0  0  0  0  0  0  0  0
  1  2  2  0
  2  3  1  0
  3  4  2  0
  3  5  1  0
  5  6  1  0
  6  7  1  0
  7  8  1  0
  8  9  1  0
  9 10  2  0
  9 11  1  0
 11 12  1  0
 12 13  1  0
 13 14  2  0
 14 15  1  0
 15 16  2  0
 15 17  1  0
 17 18  1  0
 18 19  1  0
 19 20  2  0
 20 21  1  0
 21 22  2  0
 22 23  1  0
 23 24  2  0
 14 25  1  0
 25 26  2  0
 26 27  1  0
 27 28  1  0
 27 29  2  0
 29 30  1  0
 30 31  2  0
  7 32  1  0
 32  5  1  0
 31 12  1  0
 24 19  1  0
 31 25  1  0
M  END
>  <molecule_chembl_id>  (46) 
CHEMBL4455193

>  <canonical_smiles>  (46) 
C=CC(=O)N1CC(NC(=O)Cn2cc(C(=O)NCc3ccccc3)c3cc(Br)ccc32)C1

>  <pchembl_value_mean>  (46) 
4.85

>  <inchi>  (46) 
InChI=1S/C24H23BrN4O3/c1-2-23(31)29-12-18(13-29)27-22(30)15-28-14-20(19-10-17(25)8-9-21(19)28)24(32)26-11-16-6-4-3-5-7-16/h2-10,14,18H,1,11-13,15H2,(H,26,32)(H,27,30)

$$$$

     RDKit          2D

149155  0  0  0  0  0  0  0  0999 V2000
    7.1327   -1.7299    0.0000 C   0  0  0  0  0  0  0  0  0  0  0  0
    5.9347   -0.8271    0.0000 C   0  0  0  0  0  0  0  0  0  0  0  0
    6.1175    0.6617    0.0000 C   0  0  0  0  0  0  0  0  0  0  0  0
    4.9196    1.5644    0.0000 C   0  0  0  0  0  0  0  0  0  0  0  0
    5.1024    3.0532    0.0000 C   0  0  0  0  0  0  0  0  0  0  0  0
    3.9044    3.9559    0.0000 C   0  0  0  0  0  0  0  0  0  0  0  0
    2.9007    2.8412    0.0000 N   0  0  0  0  0  0  0  0  0  0  0  0
    1.7187    1.9177    0.0000 C   0  0  0  0  0  0  0  0  0  0  0  0
    2.5357    0.6597    0.0000 O   0  0  0  0  0  0  0  0  0  0  0  0
    0.3943    1.2135    0.0000 C   0  0  0  0  0  0  0  0  0  0  0  0
    1.2760    0.0000    0.0000 C   0  0  0  0  0  0  0  0  0  0  0  0
    0.3943   -1.2135    0.0000 C   0  0  0  0  0  0  0  0  0  0  0  0
   -1.0323   -0.7500    0.0000 C   0  0  0  0  0  0  0  0  0  0  0  0
   -1.0323    0.7500    0.0000 N   0  0  0  0  0  0  0  0  0  0  0  0
   -2.5177    0.5412    0.0000 C   0  0  0  0  0  0  0  0  0  0  0  0
   -2.4392   -0.9567    0.0000 O   0  0  0  0  0  0  0  0  0  0  0  0
   -4.0168    0.5936    0.0000 C   0  0  0  0  0  0  0  0  0  0  0  0
   -4.1996   -0.8952    0.0000 C   0  0  0  0  0  0  0  0  0  0  0  0
   -5.5803   -1.4813    0.0000 C   0  0  0  0  0  0  0  0  0  0  0  0
   -6.7783   -0.5786    0.0000 O   0  0  0  0  0  0  0  0  0  0  0  0
   -5.7631   -2.9701    0.0000 O   0  0  0  0  0  0  0  0  0  0  0  0
   -5.4840    0.9055    0.0000 N   0  0  0  0  0  0  0  0  0  0  0  0
   -6.8748    1.4674    0.0000 C   0  0  0  0  0  0  0  0  0  0  0  0
   -7.5558    0.1309    0.0000 O   0  0  0  0  0  0  0  0  0  0  0  0
   -8.1468    2.2622    0.0000 C   0  0  0  0  0  0  0  0  0  0  0  0
   -9.0496    1.0643    0.0000 C   0  0  0  0  0  0  0  0  0  0  0  0
  -10.5384    1.2471    0.0000 C   0  0  0  0  0  0  0  0  0  0  0  0
  -11.1245    2.6279    0.0000 C   0  0  0  0  0  0  0  0  0  0  0  0
  -12.6133    2.8107    0.0000 C   0  0  0  0  0  0  0  0  0  0  0  0
  -13.5160    1.6127    0.0000 C   0  0  0  0  0  0  0  0  0  0  0  0
  -15.0048    1.7955    0.0000 O   0  0  0  0  0  0  0  0  0  0  0  0
  -12.9299    0.2319    0.0000 C   0  0  0  0  0  0  0  0  0  0  0  0
  -11.4411    0.0491    0.0000 C   0  0  0  0  0  0  0  0  0  0  0  0
   -9.2616    3.2659    0.0000 N   0  0  0  0  0  0  0  0  0  0  0  0
  -10.1851    4.4480    0.0000 C   0  0  0  0  0  0  0  0  0  0  0  0
  -11.4431    3.6310    0.0000 O   0  0  0  0  0  0  0  0  0  0  0  0
  -10.8893    5.7724    0.0000 C   0  0  0  0  0  0  0  0  0  0  0  0
  -12.2700    5.1863    0.0000 C   0  0  0  0  0  0  0  0  0  0  0  0
  -13.4680    6.0890    0.0000 O   0  0  0  0  0  0  0  0  0  0  0  0
  -11.3528    7.1990    0.0000 N   0  0  0  0  0  0  0  0  0  0  0  0
  -11.5615    8.6844    0.0000 C   0  0  0  0  0  0  0  0  0  0  0  0
  -13.0595    8.6059    0.0000 O   0  0  0  0  0  0  0  0  0  0  0  0
  -11.5092   10.1835    0.0000 C   0  0  0  0  0  0  0  0  0  0  0  0
  -12.9980   10.3663    0.0000 C   0  0  0  0  0  0  0  0  0  0  0  0
  -13.5841   11.7470    0.0000 C   0  0  0  0  0  0  0  0  0  0  0  0
  -13.9007    9.1683    0.0000 C   0  0  0  0  0  0  0  0  0  0  0  0
  -15.3896    9.3511    0.0000 C   0  0  0  0  0  0  0  0  0  0  0  0
  -11.1973   11.6507    0.0000 N   0  0  0  0  0  0  0  0  0  0  0  0
  -10.6354   13.0414    0.0000 C   0  0  0  0  0  0  0  0  0  0  0  0
  -11.9719   13.7224    0.0000 O   0  0  0  0  0  0  0  0  0  0  0  0
   -9.8405   14.3135    0.0000 C   0  0  0  0  0  0  0  0  0  0  0  0
  -11.0385   15.2162    0.0000 C   0  0  0  0  0  0  0  0  0  0  0  0
  -12.4193   14.6301    0.0000 C   0  0  0  0  0  0  0  0  0  0  0  0
  -12.6021   13.1413    0.0000 C   0  0  0  0  0  0  0  0  0  0  0  0
  -13.9828   12.5552    0.0000 C   0  0  0  0  0  0  0  0  0  0  0  0
  -15.1808   13.4580    0.0000 C   0  0  0  0  0  0  0  0  0  0  0  0
  -16.5615   12.8719    0.0000 C   0  0  0  0  0  0  0  0  0  0  0  0
  -16.7443   11.3830    0.0000 C   0  0  0  0  0  0  0  0  0  0  0  0
  -18.1251   10.7969    0.0000 C   0  0  0  0  0  0  0  0  0  0  0  0
  -19.3230   11.6997    0.0000 C   0  0  0  0  0  0  0  0  0  0  0  0
  -19.1402   13.1885    0.0000 C   0  0  0  0  0  0  0  0  0  0  0  0
  -17.7595   13.7746    0.0000 C   0  0  0  0  0  0  0  0  0  0  0  0
  -14.9980   14.9468    0.0000 C   0  0  0  0  0  0  0  0  0  0  0  0
  -13.6172   15.5329    0.0000 C   0  0  0  0  0  0  0  0  0  0  0  0
   -8.8368   15.4282    0.0000 N   0  0  0  0  0  0  0  0  0  0  0  0
   -7.6548   16.3517    0.0000 C   0  0  0  0  0  0  0  0  0  0  0  0
   -8.4718   17.6097    0.0000 O   0  0  0  0  0  0  0  0  0  0  0  0
   -6.3304   17.0559    0.0000 C   0  0  0  0  0  0  0  0  0  0  0  0
   -6.9165   18.4367    0.0000 C   0  0  0  0  0  0  0  0  0  0  0  0
   -8.4053   18.6195    0.0000 C   0  0  0  0  0  0  0  0  0  0  0  0
   -9.3080   17.4215    0.0000 C   0  0  0  0  0  0  0  0  0  0  0  0
   -8.9914   20.0003    0.0000 C   0  0  0  0  0  0  0  0  0  0  0  0
   -4.9038   17.5195    0.0000 N   0  0  0  0  0  0  0  0  0  0  0  0
   -3.4184   17.7282    0.0000 C   0  0  0  0  0  0  0  0  0  0  0  0
   -3.8571   19.1627    0.0000 O   0  0  0  0  0  0  0  0  0  0  0  0
   -1.9193   17.6759    0.0000 C   0  0  0  0  0  0  0  0  0  0  0  0
   -2.0761   19.1677    0.0000 C   0  0  0  0  0  0  0  0  0  0  0  0
   -3.3752   19.9177    0.0000 C   0  0  0  0  0  0  0  0  0  0  0  0
   -3.3752   21.4177    0.0000 C   0  0  0  0  0  0  0  0  0  0  0  0
   -4.6742   22.1677    0.0000 C   0  0  0  0  0  0  0  0  0  0  0  0
   -5.9732   21.4177    0.0000 C   0  0  0  0  0  0  0  0  0  0  0  0
   -5.9732   19.9177    0.0000 C   0  0  0  0  0  0  0  0  0  0  0  0
   -4.6742   19.1677    0.0000 C   0  0  0  0  0  0  0  0  0  0  0  0
   -0.7058   19.7778    0.0000 C   0  0  0  0  0  0  0  0  0  0  0  0
    0.2979   18.6630    0.0000 C   0  0  0  0  0  0  0  0  0  0  0  0
   -0.4521   17.3640    0.0000 N   0  0  0  0  0  0  0  0  0  0  0  0
    0.9387   16.8021    0.0000 C   0  0  0  0  0  0  0  0  0  0  0  0
    2.2107   16.0072    0.0000 C   0  0  0  0  0  0  0  0  0  0  0  0
    3.1135   17.2052    0.0000 O   0  0  0  0  0  0  0  0  0  0  0  0
    3.3255   15.0035    0.0000 C   0  0  0  0  0  0  0  0  0  0  0  0
    4.4225   16.0265    0.0000 N   0  0  0  0  0  0  0  0  0  0  0  0
    5.8569   15.5880    0.0000 C   0  0  0  0  0  0  0  0  0  0  0  0
    6.1944   14.1264    0.0000 O   0  0  0  0  0  0  0  0  0  0  0  0
    6.9540   16.6110    0.0000 C   0  0  0  0  0  0  0  0  0  0  0  0
    8.3884   16.1724    0.0000 C   0  0  0  0  0  0  0  0  0  0  0  0
    9.4855   17.1954    0.0000 C   0  0  0  0  0  0  0  0  0  0  0  0
   10.9199   16.7568    0.0000 C   0  0  0  0  0  0  0  0  0  0  0  0
   12.0169   17.7798    0.0000 N   0  0  0  0  0  0  0  0  0  0  0  0
   13.4514   17.3413    0.0000 C   0  0  0  0  0  0  0  0  0  0  0  0
   13.7888   15.8797    0.0000 N   0  0  0  0  0  0  0  0  0  0  0  0
   14.5484   18.3643    0.0000 N   0  0  0  0  0  0  0  0  0  0  0  0
    6.6165   18.0725    0.0000 N   0  0  0  0  0  0  0  0  0  0  0  0
    7.7136   19.0955    0.0000 C   0  0  0  0  0  0  0  0  0  0  0  0
    9.1480   18.6570    0.0000 O   0  0  0  0  0  0  0  0  0  0  0  0
    7.3761   20.5571    0.0000 C   0  0  0  0  0  0  0  0  0  0  0  0
    8.4732   21.5801    0.0000 C   0  0  0  0  0  0  0  0  0  0  0  0
    8.1358   23.0416    0.0000 C   0  0  0  0  0  0  0  0  0  0  0  0
    9.2328   24.0646    0.0000 C   0  0  0  0  0  0  0  0  0  0  0  0
    8.8954   25.5262    0.0000 N   0  0  0  0  0  0  0  0  0  0  0  0
    9.9924   26.5492    0.0000 C   0  0  0  0  0  0  0  0  0  0  0  0
   11.4268   26.1106    0.0000 N   0  0  0  0  0  0  0  0  0  0  0  0
    9.6550   28.0107    0.0000 N   0  0  0  0  0  0  0  0  0  0  0  0
    5.9417   20.9956    0.0000 N   0  0  0  0  0  0  0  0  0  0  0  0
    5.6043   22.4572    0.0000 C   0  0  0  0  0  0  0  0  0  0  0  0
    4.1698   22.8957    0.0000 C   0  0  0  0  0  0  0  0  0  0  0  0
    6.7013   23.4802    0.0000 O   0  0  0  0  0  0  0  0  0  0  0  0
    4.2489   13.8215    0.0000 C   0  0  0  0  0  0  0  0  0  0  0  0
    4.9532   12.4971    0.0000 S   0  0  0  0  0  0  0  0  0  0  0  0
    5.4167   11.0705    0.0000 S   0  0  0  0  0  0  0  0  0  0  0  0
    5.6254    9.5851    0.0000 C   0  0  0  0  0  0  0  0  0  0  0  0
    5.5731    8.0860    0.0000 C   0  0  0  0  0  0  0  0  0  0  0  0
    7.0619    7.9032    0.0000 C   0  0  0  0  0  0  0  0  0  0  0  0
    7.9646    9.1012    0.0000 O   0  0  0  0  0  0  0  0  0  0  0  0
    7.6480    6.5225    0.0000 N   0  0  0  0  0  0  0  0  0  0  0  0
    9.1368    6.3396    0.0000 C   0  0  0  0  0  0  0  0  0  0  0  0
    9.7229    4.9589    0.0000 C   0  0  0  0  0  0  0  0  0  0  0  0
   11.2117    4.7761    0.0000 C   0  0  0  0  0  0  0  0  0  0  0  0
   11.7978    3.3953    0.0000 C   0  0  0  0  0  0  0  0  0  0  0  0
   13.2867    3.2125    0.0000 N   0  0  0  0  0  0  0  0  0  0  0  0
   13.8728    1.8318    0.0000 C   0  0  0  0  0  0  0  0  0  0  0  0
   12.9700    0.6338    0.0000 N   0  0  0  0  0  0  0  0  0  0  0  0
   15.3616    1.6490    0.0000 N   0  0  0  0  0  0  0  0  0  0  0  0
   10.0395    7.5376    0.0000 C   0  0  0  0  0  0  0  0  0  0  0  0
    9.4534    8.9184    0.0000 O   0  0  0  0  0  0  0  0  0  0  0  0
   11.5284    7.3548    0.0000 N   0  0  0  0  0  0  0  0  0  0  0  0
   12.4311    8.5527    0.0000 C   0  0  0  0  0  0  0  0  0  0  0  0
   13.9199    8.3699    0.0000 C   0  0  0  0  0  0  0  0  0  0  0  0
   14.8226    9.5679    0.0000 C   0  0  0  0  0  0  0  0  0  0  0  0
   16.3114    9.3851    0.0000 C   0  0  0  0  0  0  0  0  0  0  0  0
   17.2142   10.5830    0.0000 N   0  0  0  0  0  0  0  0  0  0  0  0
   18.7030   10.4002    0.0000 C   0  0  0  0  0  0  0  0  0  0  0  0
   19.2891    9.0195    0.0000 N   0  0  0  0  0  0  0  0  0  0  0  0
   19.6057   11.5982    0.0000 N   0  0  0  0  0  0  0  0  0  0  0  0
   11.8450    9.9335    0.0000 C   0  0  0  0  0  0  0  0  0  0  0  0
   12.7477   11.1315    0.0000 N   0  0  0  0  0  0  0  0  0  0  0  0
   10.3562   10.1163    0.0000 O   0  0  0  0  0  0  0  0  0  0  0  0
    5.2612    6.6188    0.0000 N   0  0  0  0  0  0  0  0  0  0  0  0
    4.6993    5.2280    0.0000 C   0  0  0  0  0  0  0  0  0  0  0  0
    6.0358    4.5470    0.0000 O   0  0  0  0  0  0  0  0  0  0  0  0
  1  2  1  0
  2  3  1  0
  3  4  1  0
  4  5  1  0
  6  5  1  6
  6  7  1  0
  7  8  1  0
  8  9  2  0
  8 10  1  0
 10 11  1  6
 11 12  1  0
 12 13  1  0
 13 14  1  0
 14 15  1  0
 15 16  2  0
 15 17  1  0
 17 18  1  6
 18 19  1  0
 19 20  2  0
 19 21  1  0
 17 22  1  0
 22 23  1  0
 23 24  2  0
 23 25  1  0
 25 26  1  6
 26 27  1  0
 27 28  2  0
 28 29  1  0
 29 30  2  0
 30 31  1  0
 30 32  1  0
 32 33  2  0
 25 34  1  0
 34 35  1  0
 35 36  2  0
 35 37  1  0
 37 38  1  6
 38 39  1  0
 37 40  1  0
 40 41  1  0
 41 42  2  0
 41 43  1  0
 43 44  1  0
 44 45  1  6
 44 46  1  0
 46 47  1  0
 43 48  1  6
 48 49  1  0
 49 50  2  0
 49 51  1  0
 51 52  1  6
 52 53  1  0
 53 54  2  0
 54 55  1  0
 55 56  2  0
 56 57  1  0
 57 58  2  0
 58 59  1  0
 59 60  2  0
 60 61  1  0
 61 62  2  0
 56 63  1  0
 63 64  2  0
 51 65  1  0
 65 66  1  0
 66 67  2  0
 66 68  1  0
 68 69  1  6
 69 70  1  0
 70 71  1  0
 70 72  1  0
 68 73  1  0
 73 74  1  0
 74 75  2  0
 76 74  1  6
 76 77  1  0
 77 78  1  1
 78 79  2  0
 79 80  1  0
 80 81  2  0
 81 82  1  0
 82 83  2  0
 77 84  1  0
 84 85  1  0
 85 86  1  0
 86 87  1  0
 87 88  1  0
 88 89  2  0
 88 90  1  0
 90 91  1  1
 91 92  1  0
 92 93  2  0
 92 94  1  0
 94 95  1  1
 95 96  1  0
 96 97  1  0
 97 98  1  0
 98 99  1  0
 99100  2  0
 99101  1  0
 94102  1  0
102103  1  0
103104  2  0
103105  1  0
105106  1  1
106107  1  0
107108  1  0
108109  1  0
109110  1  0
110111  2  0
110112  1  0
105113  1  0
113114  1  0
114115  1  0
114116  2  0
 90117  1  0
117118  1  0
118119  1  0
119120  1  0
120121  1  0
121122  1  1
122123  2  0
122124  1  0
124125  1  0
125126  1  6
126127  1  0
127128  1  0
128129  1  0
129130  1  0
130131  2  0
130132  1  0
125133  1  0
133134  2  0
133135  1  0
135136  1  0
136137  1  6
137138  1  0
138139  1  0
139140  1  0
140141  1  0
141142  2  0
141143  1  0
136144  1  0
144145  1  0
144146  2  0
121147  1  0
147148  1  0
148149  2  0
148  6  1  0
 14 10  1  0
 33 27  1  0
 64 53  1  0
 86 76  1  0
 62 57  1  0
 83 78  1  0
M  END
>  <molecule_chembl_id>  (47) 
CHEMBL5172862

>  <canonical_smiles>  (47) 
CCCCC[C@@H]1NC(=O)[C@@H]2CCCN2C(=O)[C@H](CC(=O)O)NC(=O)[C@H](Cc2ccc(O)cc2)NC(=O)[C@H](CO)NC(=O)[C@H]([C@@H](C)CC)NC(=O)[C@H](Cc2ccc(-c3ccccc3)cc2)NC(=O)[C@H](CC(C)C)NC(=O)[C@@H]2[C@@H](c3ccccc3)CCN2CC(=O)[C@@H](NC(=O)[C@H](CCCNC(=N)N)NC(=O)[C@H](CCCNC(=N)N)NC(C)=O)CSSC[C@@H](C(=O)N[C@@H](CCCNC(=N)N)C(=O)N[C@@H](CCCNC(=N)N)C(N)=O)NC1=O

>  <pchembl_value_mean>  (47) 
4.855

>  <inchi>  (47) 
InChI=1S/C99H148N28O20S2/c1-7-9-12-26-67-86(138)124-76(91(143)116-68(29-19-43-111-98(105)106)84(136)114-65(82(100)134)27-17-41-109-96(101)102)54-149-148-53-75(123-85(137)69(30-20-44-112-99(107)108)115-83(135)66(113-57(6)129)28-18-42-110-97(103)104)78(131)51-126-46-40-64(62-24-15-11-16-25-62)81(126)94(146)120-70(47-55(3)4)87(139)118-72(48-58-32-36-61(37-33-58)60-22-13-10-14-23-60)89(141)125-80(56(5)8-2)93(145)122-74(52-128)90(142)119-71(49-59-34-38-63(130)39-35-59)88(140)121-73(50-79(132)133)95(147)127-45-21-31-77(127)92(144)117-67/h10-11,13-16,22-25,32-39,55-56,64-77,80-81,128,130H,7-9,12,17-21,26-31,40-54H2,1-6H3,(H2,100,134)(H,113,129)(H,114,136)(H,115,135)(H,116,143)(H,117,144)(H,118,139)(H,119,142)(H,120,146)(H,121,140)(H,122,145)(H,123,137)(H,124,138)(H,125,141)(H,132,133)(H4,101,102,109)(H4,103,104,110)(H4,105,106,111)(H4,107,108,112)/t56-,64+,65-,66-,67-,68-,69-,70-,71-,72-,73-,74-,75-,76-,77-,80-,81-/m0/s1

$$$$

     RDKit          2D

 28 30  0  0  0  0  0  0  0  0999 V2000
    4.5000    0.0000    0.0000 C   0  0  0  0  0  0  0  0  0  0  0  0
    3.0000    0.0000    0.0000 C   0  0  0  0  0  0  0  0  0  0  0  0
    1.5000    0.0000    0.0000 C   0  0  0  0  0  0  0  0  0  0  0  0
    0.7500   -1.2990    0.0000 C   0  0  0  0  0  0  0  0  0  0  0  0
   -0.7500   -1.2990    0.0000 C   0  0  0  0  0  0  0  0  0  0  0  0
   -1.5000   -2.5981    0.0000 C   0  0  0  0  0  0  0  0  0  0  0  0
   -3.0000   -2.5981    0.0000 N   0  0  0  0  0  0  0  0  0  0  0  0
   -3.7500   -1.2990    0.0000 C   0  0  0  0  0  0  0  0  0  0  0  0
   -5.2500   -1.2990    0.0000 C   0  0  0  0  0  0  0  0  0  0  0  0
   -6.0000   -2.5981    0.0000 N   0  0  0  0  0  0  0  0  0  0  0  0
   -7.5000   -2.5981    0.0000 C   0  0  0  0  0  0  0  0  0  0  0  0
   -8.2500   -3.8971    0.0000 O   0  0  0  0  0  0  0  0  0  0  0  0
   -8.2500   -1.2990    0.0000 C   0  0  0  0  0  0  0  0  0  0  0  0
   -9.7500   -1.2990    0.0000 C   0  0  0  0  0  0  0  0  0  0  0  0
   -5.2500   -3.8971    0.0000 C   0  0  0  0  0  0  0  0  0  0  0  0
   -3.7500   -3.8971    0.0000 C   0  0  0  0  0  0  0  0  0  0  0  0
   -1.5000    0.0000    0.0000 C   0  0  0  0  0  0  0  0  0  0  0  0
   -0.7500    1.2990    0.0000 C   0  0  0  0  0  0  0  0  0  0  0  0
   -1.5000    2.5981    0.0000 F   0  0  0  0  0  0  0  0  0  0  0  0
    0.7500    1.2990    0.0000 C   0  0  0  0  0  0  0  0  0  0  0  0
    1.5000    2.5981    0.0000 C   0  0  0  0  0  0  0  0  0  0  0  0
    3.0000    2.5981    0.0000 C   0  0  0  0  0  0  0  0  0  0  0  0
    3.7500    1.2990    0.0000 O   0  0  0  0  0  0  0  0  0  0  0  0
    3.7500    3.8971    0.0000 C   0  0  0  0  0  0  0  0  0  0  0  0
    3.0000    5.1962    0.0000 C   0  0  0  0  0  0  0  0  0  0  0  0
    1.5000    5.1962    0.0000 C   0  0  0  0  0  0  0  0  0  0  0  0
    0.7500    3.8971    0.0000 C   0  0  0  0  0  0  0  0  0  0  0  0
   -0.7500    3.8971    0.0000 Cl  0  0  0  0  0  0  0  0  0  0  0  0
  1  2  3  0
  2  3  1  0
  3  4  2  0
  4  5  1  0
  5  6  1  0
  6  7  1  0
  7  8  1  0
  8  9  1  0
  9 10  1  0
 10 11  1  0
 11 12  2  0
 11 13  1  0
 13 14  2  0
 10 15  1  0
 15 16  1  0
  5 17  2  0
 17 18  1  0
 18 19  1  0
 18 20  2  0
 20 21  1  0
 21 22  2  0
 22 23  1  0
 22 24  1  0
 24 25  2  0
 25 26  1  0
 26 27  2  0
 27 28  1  0
 20  3  1  0
 27 21  1  0
 16  7  1  0
M  END
>  <molecule_chembl_id>  (48) 
CHEMBL5436936

>  <canonical_smiles>  (48) 
C#Cc1cc(CN2CCN(C(=O)C=C)CC2)cc(F)c1-c1c(O)cccc1Cl

>  <pchembl_value_mean>  (48) 
4.87

>  <inchi>  (48) 
InChI=1S/C22H20ClFN2O2/c1-3-16-12-15(14-25-8-10-26(11-9-25)20(28)4-2)13-18(24)21(16)22-17(23)6-5-7-19(22)27/h1,4-7,12-13,27H,2,8-11,14H2

$$$$

     RDKit          2D

 50 54  0  0  0  0  0  0  0  0999 V2000
   10.1913    4.0571    0.0000 C   0  0  0  0  0  0  0  0  0  0  0  0
    9.1633    5.1495    0.0000 C   0  0  0  0  0  0  0  0  0  0  0  0
    9.5952    6.5859    0.0000 C   0  0  0  0  0  0  0  0  0  0  0  0
    7.7033    4.8053    0.0000 C   0  0  0  0  0  0  0  0  0  0  0  0
    6.6752    5.8976    0.0000 C   0  0  0  0  0  0  0  0  0  0  0  0
    5.2153    5.5535    0.0000 N   0  0  0  0  0  0  0  0  0  0  0  0
    4.1872    6.6458    0.0000 C   0  0  0  0  0  0  0  0  0  0  0  0
    4.6192    8.0823    0.0000 O   0  0  0  0  0  0  0  0  0  0  0  0
    2.7272    6.3017    0.0000 C   0  0  0  0  0  0  0  0  0  0  0  0
    2.8264    4.8050    0.0000 C   0  0  0  0  0  0  0  0  0  0  0  0
    2.4342    3.3572    0.0000 O   0  0  0  0  0  0  0  0  0  0  0  0
    1.5931    2.1151    0.0000 C   0  0  0  0  0  0  0  0  0  0  0  0
    0.3943    1.2135    0.0000 C   0  0  0  0  0  0  0  0  0  0  0  0
    1.2760    0.0000    0.0000 C   0  0  0  0  0  0  0  0  0  0  0  0
    0.3943   -1.2135    0.0000 N   0  0  0  0  0  0  0  0  0  0  0  0
   -1.0323   -0.7500    0.0000 N   0  0  0  0  0  0  0  0  0  0  0  0
   -1.0323    0.7500    0.0000 N   0  0  0  0  0  0  0  0  0  0  0  0
   -2.5321    0.7748    0.0000 C   0  0  0  0  0  0  0  0  0  0  0  0
   -3.9426    1.2852    0.0000 C   0  0  0  0  0  0  0  0  0  0  0  0
   -5.1109    2.2260    0.0000 C   0  0  0  0  0  0  0  0  0  0  0  0
   -5.9104    3.4951    0.0000 C   0  0  0  0  0  0  0  0  0  0  0  0
   -6.2546    4.9551    0.0000 C   0  0  0  0  0  0  0  0  0  0  0  0
   -6.1060    6.4478    0.0000 C   0  0  0  0  0  0  0  0  0  0  0  0
   -7.5538    6.8400    0.0000 O   0  0  0  0  0  0  0  0  0  0  0  0
   -5.4808    7.8113    0.0000 N   0  0  0  0  0  0  0  0  0  0  0  0
   -6.8338    8.4589    0.0000 C   0  0  0  0  0  0  0  0  0  0  0  0
   -6.6360    9.9458    0.0000 C   0  0  0  0  0  0  0  0  0  0  0  0
   -5.1607   10.2171    0.0000 C   0  0  0  0  0  0  0  0  0  0  0  0
   -4.4468    8.8979    0.0000 C   0  0  0  0  0  0  0  0  0  0  0  0
   -3.1160    9.5899    0.0000 C   0  0  0  0  0  0  0  0  0  0  0  0
   -3.5795   11.0165    0.0000 O   0  0  0  0  0  0  0  0  0  0  0  0
   -1.6325    9.8123    0.0000 N   0  0  0  0  0  0  0  0  0  0  0  0
   -0.1573    9.5410    0.0000 C   0  0  0  0  0  0  0  0  0  0  0  0
    0.3532   10.9515    0.0000 C   0  0  0  0  0  0  0  0  0  0  0  0
   -0.6131   12.0988    0.0000 C   0  0  0  0  0  0  0  0  0  0  0  0
   -2.0899   11.8356    0.0000 C   0  0  0  0  0  0  0  0  0  0  0  0
   -3.0561   12.9829    0.0000 C   0  0  0  0  0  0  0  0  0  0  0  0
   -2.5457   14.3934    0.0000 C   0  0  0  0  0  0  0  0  0  0  0  0
   -1.0690   14.6565    0.0000 C   0  0  0  0  0  0  0  0  0  0  0  0
   -0.5585   16.0670    0.0000 C   0  0  0  0  0  0  0  0  0  0  0  0
    0.9182   16.3302    0.0000 C   0  0  0  0  0  0  0  0  0  0  0  0
    1.8845   15.1829    0.0000 C   0  0  0  0  0  0  0  0  0  0  0  0
    1.3740   13.7724    0.0000 C   0  0  0  0  0  0  0  0  0  0  0  0
   -0.1027   13.5092    0.0000 C   0  0  0  0  0  0  0  0  0  0  0  0
    1.1500    8.8054    0.0000 C   0  0  0  0  0  0  0  0  0  0  0  0
    2.0907    9.9737    0.0000 O   0  0  0  0  0  0  0  0  0  0  0  0
    2.1475    7.6851    0.0000 N   0  0  0  0  0  0  0  0  0  0  0  0
    7.1072    7.3341    0.0000 C   0  0  0  0  0  0  0  0  0  0  0  0
    8.5672    7.6782    0.0000 N   0  0  0  0  0  0  0  0  0  0  0  0
    6.0792    8.4264    0.0000 O   0  0  0  0  0  0  0  0  0  0  0  0
  1  2  1  0
  2  3  1  0
  2  4  1  0
  5  4  1  6
  5  6  1  0
  6  7  1  0
  7  8  2  0
  9  7  1  6
  9 10  1  0
 10 11  1  0
 11 12  1  0
 12 13  1  0
 13 14  2  0
 14 15  1  0
 15 16  2  0
 16 17  1  0
 17 18  1  0
 18 19  1  0
 19 20  1  0
 20 21  1  0
 21 22  1  0
 22 23  1  0
 23 24  2  0
 23 25  1  0
 25 26  1  0
 26 27  1  0
 27 28  1  0
 29 28  1  1
 29 30  1  0
 30 31  2  0
 30 32  1  0
 32 33  1  0
 33 34  1  1
 34 35  1  0
 35 36  2  0
 36 37  1  0
 37 38  2  0
 38 39  1  0
 39 40  2  0
 40 41  1  0
 41 42  2  0
 42 43  1  0
 43 44  2  0
 33 45  1  0
 45 46  2  0
 45 47  1  0
  5 48  1  0
 48 49  1  0
 48 50  2  0
 47  9  1  0
 17 13  1  0
 29 25  1  0
 44 35  1  0
 44 39  1  0
M  END
>  <molecule_chembl_id>  (49) 
CHEMBL5071531

>  <canonical_smiles>  (49) 
CC(C)C[C@H](NC(=O)[C@@H]1COCc2cnnn2CCCCCC(=O)N2CCC[C@H]2C(=O)N[C@@H](Cc2cccc3ccccc23)C(=O)N1)C(N)=O

>  <pchembl_value_mean>  (49) 
4.91

>  <inchi>  (49) 
InChI=1S/C36H48N8O6/c1-23(2)18-28(33(37)46)39-35(48)30-22-50-21-26-20-38-42-44(26)17-7-3-4-15-32(45)43-16-9-14-31(43)36(49)40-29(34(47)41-30)19-25-12-8-11-24-10-5-6-13-27(24)25/h5-6,8,10-13,20,23,28-31H,3-4,7,9,14-19,21-22H2,1-2H3,(H2,37,46)(H,39,48)(H,40,49)(H,41,47)/t28-,29-,30-,31-/m0/s1

$$$$

     RDKit          2D

 53 57  0  0  0  0  0  0  0  0999 V2000
   10.2274    2.8889    0.0000 C   0  0  0  0  0  0  0  0  0  0  0  0
    9.3640    4.1154    0.0000 C   0  0  0  0  0  0  0  0  0  0  0  0
    9.9945    5.4765    0.0000 C   0  0  0  0  0  0  0  0  0  0  0  0
    7.8700    3.9810    0.0000 C   0  0  0  0  0  0  0  0  0  0  0  0
    7.0066    5.2076    0.0000 C   0  0  0  0  0  0  0  0  0  0  0  0
    5.5126    5.0731    0.0000 N   0  0  0  0  0  0  0  0  0  0  0  0
    4.6492    6.2997    0.0000 C   0  0  0  0  0  0  0  0  0  0  0  0
    5.2797    7.6607    0.0000 O   0  0  0  0  0  0  0  0  0  0  0  0
    3.1552    6.1652    0.0000 C   0  0  0  0  0  0  0  0  0  0  0  0
    3.0655    4.6679    0.0000 C   0  0  0  0  0  0  0  0  0  0  0  0
    2.5385    3.2636    0.0000 S   0  0  0  0  0  0  0  0  0  0  0  0
    1.6209    2.0770    0.0000 C   0  0  0  0  0  0  0  0  0  0  0  0
    0.3943    1.2135    0.0000 C   0  0  0  0  0  0  0  0  0  0  0  0
    1.2760    0.0000    0.0000 C   0  0  0  0  0  0  0  0  0  0  0  0
    0.3943   -1.2135    0.0000 N   0  0  0  0  0  0  0  0  0  0  0  0
   -1.0323   -0.7500    0.0000 N   0  0  0  0  0  0  0  0  0  0  0  0
   -1.0323    0.7500    0.0000 N   0  0  0  0  0  0  0  0  0  0  0  0
   -2.5321    0.7276    0.0000 C   0  0  0  0  0  0  0  0  0  0  0  0
   -3.9719    1.1482    0.0000 C   0  0  0  0  0  0  0  0  0  0  0  0
   -5.2238    1.9745    0.0000 C   0  0  0  0  0  0  0  0  0  0  0  0
   -6.1765    3.1332    0.0000 C   0  0  0  0  0  0  0  0  0  0  0  0
   -6.7453    4.5211    0.0000 C   0  0  0  0  0  0  0  0  0  0  0  0
   -8.2025    4.1655    0.0000 O   0  0  0  0  0  0  0  0  0  0  0  0
   -6.8798    6.0151    0.0000 N   0  0  0  0  0  0  0  0  0  0  0  0
   -6.5679    7.4823    0.0000 C   0  0  0  0  0  0  0  0  0  0  0  0
   -5.8374    8.7924    0.0000 C   0  0  0  0  0  0  0  0  0  0  0  0
   -7.0240    9.7100    0.0000 O   0  0  0  0  0  0  0  0  0  0  0  0
   -4.7532    9.8290    0.0000 N   0  0  0  0  0  0  0  0  0  0  0  0
   -5.8059   10.8976    0.0000 C   0  0  0  0  0  0  0  0  0  0  0  0
   -5.1150   12.2290    0.0000 C   0  0  0  0  0  0  0  0  0  0  0  0
   -3.6352   11.9832    0.0000 C   0  0  0  0  0  0  0  0  0  0  0  0
   -3.4117   10.5000    0.0000 C   0  0  0  0  0  0  0  0  0  0  0  0
   -1.9319   10.7457    0.0000 C   0  0  0  0  0  0  0  0  0  0  0  0
   -1.9544   12.2455    0.0000 O   0  0  0  0  0  0  0  0  0  0  0  0
   -0.4455   10.5444    0.0000 N   0  0  0  0  0  0  0  0  0  0  0  0
    0.9155    9.9138    0.0000 C   0  0  0  0  0  0  0  0  0  0  0  0
    1.7419   11.1657    0.0000 C   0  0  0  0  0  0  0  0  0  0  0  0
    1.0709   12.5073    0.0000 C   0  0  0  0  0  0  0  0  0  0  0  0
   -0.4264   12.5970    0.0000 C   0  0  0  0  0  0  0  0  0  0  0  0
   -1.0974   13.9385    0.0000 C   0  0  0  0  0  0  0  0  0  0  0  0
   -0.2710   15.1904    0.0000 C   0  0  0  0  0  0  0  0  0  0  0  0
    1.2263   15.1007    0.0000 C   0  0  0  0  0  0  0  0  0  0  0  0
    2.0526   16.3525    0.0000 C   0  0  0  0  0  0  0  0  0  0  0  0
    3.5500   16.2628    0.0000 C   0  0  0  0  0  0  0  0  0  0  0  0
    4.2209   14.9213    0.0000 C   0  0  0  0  0  0  0  0  0  0  0  0
    3.3946   13.6694    0.0000 C   0  0  0  0  0  0  0  0  0  0  0  0
    1.8973   13.7591    0.0000 C   0  0  0  0  0  0  0  0  0  0  0  0
    2.0303    8.9101    0.0000 C   0  0  0  0  0  0  0  0  0  0  0  0
    3.1889    9.8628    0.0000 O   0  0  0  0  0  0  0  0  0  0  0  0
    2.7996    7.6225    0.0000 N   0  0  0  0  0  0  0  0  0  0  0  0
    7.6371    6.5686    0.0000 C   0  0  0  0  0  0  0  0  0  0  0  0
    9.1311    6.7031    0.0000 N   0  0  0  0  0  0  0  0  0  0  0  0
    6.7737    7.7952    0.0000 O   0  0  0  0  0  0  0  0  0  0  0  0
  1  2  1  0
  2  3  1  0
  2  4  1  0
  5  4  1  6
  5  6  1  0
  6  7  1  0
  7  8  2  0
  9  7  1  1
  9 10  1  0
 10 11  1  0
 11 12  1  0
 12 13  1  0
 13 14  2  0
 14 15  1  0
 15 16  2  0
 16 17  1  0
 17 18  1  0
 18 19  1  0
 19 20  1  0
 20 21  1  0
 21 22  1  0
 22 23  2  0
 22 24  1  0
 24 25  1  0
 25 26  1  0
 26 27  2  0
 26 28  1  0
 28 29  1  0
 29 30  1  0
 30 31  1  0
 32 31  1  1
 32 33  1  0
 33 34  2  0
 33 35  1  0
 35 36  1  0
 36 37  1  1
 37 38  1  0
 38 39  2  0
 39 40  1  0
 40 41  2  0
 41 42  1  0
 42 43  2  0
 43 44  1  0
 44 45  2  0
 45 46  1  0
 46 47  2  0
 36 48  1  0
 48 49  2  0
 48 50  1  0
  5 51  1  0
 51 52  1  0
 51 53  2  0
 50  9  1  0
 17 13  1  0
 32 28  1  0
 47 38  1  0
 47 42  1  0
M  END
>  <molecule_chembl_id>  (50) 
CHEMBL5094359

>  <canonical_smiles>  (50) 
CC(C)C[C@H](NC(=O)[C@H]1CSCc2cnnn2CCCCC(=O)NCC(=O)N2CCC[C@H]2C(=O)N[C@@H](Cc2cccc3ccccc23)C(=O)N1)C(N)=O

>  <pchembl_value_mean>  (50) 
4.97

>  <inchi>  (50) 
InChI=1S/C37H49N9O6S/c1-23(2)17-28(34(38)49)41-36(51)30-22-53-21-26-19-40-44-46(26)16-6-5-14-32(47)39-20-33(48)45-15-8-13-31(45)37(52)42-29(35(50)43-30)18-25-11-7-10-24-9-3-4-12-27(24)25/h3-4,7,9-12,19,23,28-31H,5-6,8,13-18,20-22H2,1-2H3,(H2,38,49)(H,39,47)(H,41,51)(H,42,52)(H,43,50)/t28-,29-,30+,31-/m0/s1

$$$$

     RDKit          2D

 52 56  0  0  0  0  0  0  0  0999 V2000
   10.2296    3.4421    0.0000 C   0  0  0  0  0  0  0  0  0  0  0  0
    9.2856    4.6078    0.0000 C   0  0  0  0  0  0  0  0  0  0  0  0
    9.8231    6.0082    0.0000 C   0  0  0  0  0  0  0  0  0  0  0  0
    7.8041    4.3732    0.0000 C   0  0  0  0  0  0  0  0  0  0  0  0
    6.8601    5.5389    0.0000 C   0  0  0  0  0  0  0  0  0  0  0  0
    5.3785    5.3042    0.0000 N   0  0  0  0  0  0  0  0  0  0  0  0
    4.4346    6.4700    0.0000 C   0  0  0  0  0  0  0  0  0  0  0  0
    4.9721    7.8703    0.0000 O   0  0  0  0  0  0  0  0  0  0  0  0
    2.9530    6.2353    0.0000 C   0  0  0  0  0  0  0  0  0  0  0  0
    2.9530    4.7353    0.0000 C   0  0  0  0  0  0  0  0  0  0  0  0
    2.4895    3.3087    0.0000 O   0  0  0  0  0  0  0  0  0  0  0  0
    1.6078    2.0952    0.0000 C   0  0  0  0  0  0  0  0  0  0  0  0
    0.3943    1.2135    0.0000 C   0  0  0  0  0  0  0  0  0  0  0  0
    1.2760    0.0000    0.0000 C   0  0  0  0  0  0  0  0  0  0  0  0
    0.3943   -1.2135    0.0000 N   0  0  0  0  0  0  0  0  0  0  0  0
   -1.0323   -0.7500    0.0000 N   0  0  0  0  0  0  0  0  0  0  0  0
   -1.0323    0.7500    0.0000 N   0  0  0  0  0  0  0  0  0  0  0  0
   -2.5323    0.7500    0.0000 C   0  0  0  0  0  0  0  0  0  0  0  0
   -3.9589    1.2135    0.0000 C   0  0  0  0  0  0  0  0  0  0  0  0
   -5.1724    2.0952    0.0000 C   0  0  0  0  0  0  0  0  0  0  0  0
   -6.0541    3.3087    0.0000 C   0  0  0  0  0  0  0  0  0  0  0  0
   -7.3906    2.6277    0.0000 O   0  0  0  0  0  0  0  0  0  0  0  0
   -6.5176    4.7353    0.0000 N   0  0  0  0  0  0  0  0  0  0  0  0
   -6.5176    6.2353    0.0000 C   0  0  0  0  0  0  0  0  0  0  0  0
   -6.0541    7.6619    0.0000 C   0  0  0  0  0  0  0  0  0  0  0  0
   -7.3906    8.3429    0.0000 O   0  0  0  0  0  0  0  0  0  0  0  0
   -5.1724    8.8754    0.0000 N   0  0  0  0  0  0  0  0  0  0  0  0
   -6.3859    9.7571    0.0000 C   0  0  0  0  0  0  0  0  0  0  0  0
   -5.9224   11.1837    0.0000 C   0  0  0  0  0  0  0  0  0  0  0  0
   -4.4224   11.1837    0.0000 C   0  0  0  0  0  0  0  0  0  0  0  0
   -3.9589    9.7571    0.0000 C   0  0  0  0  0  0  0  0  0  0  0  0
   -2.5323   10.2206    0.0000 C   0  0  0  0  0  0  0  0  0  0  0  0
   -2.7669   11.7022    0.0000 O   0  0  0  0  0  0  0  0  0  0  0  0
   -1.0323   10.2206    0.0000 N   0  0  0  0  0  0  0  0  0  0  0  0
    0.3943    9.7571    0.0000 C   0  0  0  0  0  0  0  0  0  0  0  0
    1.0753   11.0936    0.0000 C   0  0  0  0  0  0  0  0  0  0  0  0
    0.2583   12.3516    0.0000 C   0  0  0  0  0  0  0  0  0  0  0  0
   -1.2396   12.2731    0.0000 C   0  0  0  0  0  0  0  0  0  0  0  0
   -2.0566   13.5311    0.0000 C   0  0  0  0  0  0  0  0  0  0  0  0
   -1.3756   14.8676    0.0000 C   0  0  0  0  0  0  0  0  0  0  0  0
    0.1224   14.9461    0.0000 C   0  0  0  0  0  0  0  0  0  0  0  0
    0.8033   16.2826    0.0000 C   0  0  0  0  0  0  0  0  0  0  0  0
    2.3013   16.3611    0.0000 C   0  0  0  0  0  0  0  0  0  0  0  0
    3.1182   15.1031    0.0000 C   0  0  0  0  0  0  0  0  0  0  0  0
    2.4373   13.7666    0.0000 C   0  0  0  0  0  0  0  0  0  0  0  0
    0.9393   13.6881    0.0000 C   0  0  0  0  0  0  0  0  0  0  0  0
    1.6078    8.8754    0.0000 C   0  0  0  0  0  0  0  0  0  0  0  0
    2.6685    9.9361    0.0000 O   0  0  0  0  0  0  0  0  0  0  0  0
    2.4895    7.6619    0.0000 N   0  0  0  0  0  0  0  0  0  0  0  0
    7.3976    6.9393    0.0000 C   0  0  0  0  0  0  0  0  0  0  0  0
    8.8792    7.1739    0.0000 N   0  0  0  0  0  0  0  0  0  0  0  0
    6.4536    8.1050    0.0000 O   0  0  0  0  0  0  0  0  0  0  0  0
  1  2  1  0
  2  3  1  0
  2  4  1  0
  5  4  1  6
  5  6  1  0
  6  7  1  0
  7  8  2  0
  9  7  1  6
  9 10  1  0
 10 11  1  0
 11 12  1  0
 12 13  1  0
 13 14  2  0
 14 15  1  0
 15 16  2  0
 16 17  1  0
 17 18  1  0
 18 19  1  0
 19 20  1  0
 20 21  1  0
 21 22  2  0
 21 23  1  0
 23 24  1  0
 24 25  1  0
 25 26  2  0
 25 27  1  0
 27 28  1  0
 28 29  1  0
 29 30  1  0
 31 30  1  1
 31 32  1  0
 32 33  2  0
 32 34  1  0
 34 35  1  0
 35 36  1  1
 36 37  1  0
 37 38  2  0
 38 39  1  0
 39 40  2  0
 40 41  1  0
 41 42  2  0
 42 43  1  0
 43 44  2  0
 44 45  1  0
 45 46  2  0
 35 47  1  0
 47 48  2  0
 47 49  1  0
  5 50  1  0
 50 51  1  0
 50 52  2  0
 49  9  1  0
 17 13  1  0
 31 27  1  0
 46 37  1  0
 46 41  1  0
M  END
>  <molecule_chembl_id>  (51) 
CHEMBL5079007

>  <canonical_smiles>  (51) 
CC(C)C[C@H](NC(=O)[C@@H]1COCc2cnnn2CCCC(=O)NCC(=O)N2CCC[C@H]2C(=O)N[C@@H](Cc2cccc3ccccc23)C(=O)N1)C(N)=O

>  <pchembl_value_mean>  (51) 
4.99

>  <inchi>  (51) 
InChI=1S/C36H47N9O7/c1-22(2)16-27(33(37)48)40-35(50)29-21-52-20-25-18-39-43-45(25)15-7-13-31(46)38-19-32(47)44-14-6-12-30(44)36(51)41-28(34(49)42-29)17-24-10-5-9-23-8-3-4-11-26(23)24/h3-5,8-11,18,22,27-30H,6-7,12-17,19-21H2,1-2H3,(H2,37,48)(H,38,46)(H,40,50)(H,41,51)(H,42,49)/t27-,28-,29-,30-/m0/s1

$$$$

     RDKit          2D

 92 97  0  0  0  0  0  0  0  0999 V2000
  -11.3367   -6.2110    0.0000 C   0  0  0  0  0  0  0  0  0  0  0  0
   -9.8520   -6.4245    0.0000 C   0  0  0  0  0  0  0  0  0  0  0  0
   -8.9248   -5.2454    0.0000 C   0  0  0  0  0  0  0  0  0  0  0  0
   -9.2945   -7.8170    0.0000 C   0  0  0  0  0  0  0  0  0  0  0  0
   -7.8098   -8.0305    0.0000 C   0  0  0  0  0  0  0  0  0  0  0  0
   -7.8811   -9.5288    0.0000 N   0  0  0  0  0  0  0  0  0  0  0  0
   -7.6677  -11.0136    0.0000 C   0  0  0  0  0  0  0  0  0  0  0  0
   -9.1254  -11.3672    0.0000 O   0  0  0  0  0  0  0  0  0  0  0  0
   -7.1771  -12.4311    0.0000 C   0  0  0  0  0  0  0  0  0  0  0  0
   -8.5415  -13.0542    0.0000 C   0  0  0  0  0  0  0  0  0  0  0  0
   -9.7634  -12.1841    0.0000 C   0  0  0  0  0  0  0  0  0  0  0  0
  -11.1278  -12.8072    0.0000 C   0  0  0  0  0  0  0  0  0  0  0  0
  -11.2704  -14.3004    0.0000 O   0  0  0  0  0  0  0  0  0  0  0  0
  -12.3497  -11.9371    0.0000 O   0  0  0  0  0  0  0  0  0  0  0  0
   -6.4271  -13.7301    0.0000 N   0  0  0  0  0  0  0  0  0  0  0  0
   -5.4448  -14.8637    0.0000 C   0  0  0  0  0  0  0  0  0  0  0  0
   -6.4799  -15.9493    0.0000 O   0  0  0  0  0  0  0  0  0  0  0  0
   -4.2657  -15.7910    0.0000 C   0  0  0  0  0  0  0  0  0  0  0  0
   -5.0767  -17.0528    0.0000 C   0  0  0  0  0  0  0  0  0  0  0  0
   -6.5750  -16.9815    0.0000 C   0  0  0  0  0  0  0  0  0  0  0  0
   -7.3859  -18.2433    0.0000 C   0  0  0  0  0  0  0  0  0  0  0  0
   -6.6986  -19.5766    0.0000 C   0  0  0  0  0  0  0  0  0  0  0  0
   -5.2003  -19.6480    0.0000 C   0  0  0  0  0  0  0  0  0  0  0  0
   -4.3893  -18.3861    0.0000 C   0  0  0  0  0  0  0  0  0  0  0  0
   -2.9324  -16.4783    0.0000 N   0  0  0  0  0  0  0  0  0  0  0  0
   -1.4932  -16.9009    0.0000 C   0  0  0  0  0  0  0  0  0  0  0  0
   -1.7771  -18.3738    0.0000 O   0  0  0  0  0  0  0  0  0  0  0  0
    0.0000  -17.0435    0.0000 C   0  0  0  0  0  0  0  0  0  0  0  0
    0.0000  -18.5435    0.0000 C   0  0  0  0  0  0  0  0  0  0  0  0
   -1.2990  -19.2935    0.0000 C   0  0  0  0  0  0  0  0  0  0  0  0
   -2.5981  -18.5435    0.0000 C   0  0  0  0  0  0  0  0  0  0  0  0
   -3.8971  -19.2935    0.0000 C   0  0  0  0  0  0  0  0  0  0  0  0
   -3.8971  -20.7935    0.0000 C   0  0  0  0  0  0  0  0  0  0  0  0
   -2.5981  -21.5435    0.0000 C   0  0  0  0  0  0  0  0  0  0  0  0
   -1.2990  -20.7935    0.0000 C   0  0  0  0  0  0  0  0  0  0  0  0
    1.4932  -16.9009    0.0000 N   0  0  0  0  0  0  0  0  0  0  0  0
    2.9324  -16.4783    0.0000 C   0  0  0  0  0  0  0  0  0  0  0  0
    3.4899  -17.8708    0.0000 O   0  0  0  0  0  0  0  0  0  0  0  0
    4.2657  -15.7910    0.0000 C   0  0  0  0  0  0  0  0  0  0  0  0
    5.0767  -17.0528    0.0000 C   0  0  0  0  0  0  0  0  0  0  0  0
    4.3893  -18.3861    0.0000 C   0  0  0  0  0  0  0  0  0  0  0  0
    5.2003  -19.6480    0.0000 C   0  0  0  0  0  0  0  0  0  0  0  0
    4.5129  -20.9812    0.0000 N   0  0  0  0  0  0  0  0  0  0  0  0
    5.4448  -14.8637    0.0000 N   0  0  0  0  0  0  0  0  0  0  0  0
    6.4271  -13.7301    0.0000 C   0  0  0  0  0  0  0  0  0  0  0  0
    7.6489  -14.6002    0.0000 O   0  0  0  0  0  0  0  0  0  0  0  0
    7.1771  -12.4311    0.0000 C   0  0  0  0  0  0  0  0  0  0  0  0
    8.3736  -13.3357    0.0000 C   0  0  0  0  0  0  0  0  0  0  0  0
    9.6037  -12.4773    0.0000 C   0  0  0  0  0  0  0  0  0  0  0  0
    9.1674  -11.0421    0.0000 C   0  0  0  0  0  0  0  0  0  0  0  0
    7.6677  -11.0136    0.0000 N   0  0  0  0  0  0  0  0  0  0  0  0
    7.8811   -9.5288    0.0000 C   0  0  0  0  0  0  0  0  0  0  0  0
    9.3794   -9.6002    0.0000 O   0  0  0  0  0  0  0  0  0  0  0  0
    7.8098   -8.0305    0.0000 C   0  0  0  0  0  0  0  0  0  0  0  0
    9.2945   -7.8170    0.0000 C   0  0  0  0  0  0  0  0  0  0  0  0
    9.8520   -6.4245    0.0000 C   0  0  0  0  0  0  0  0  0  0  0  0
   11.3367   -6.2110    0.0000 C   0  0  0  0  0  0  0  0  0  0  0  0
   11.8942   -4.8185    0.0000 N   0  0  0  0  0  0  0  0  0  0  0  0
   12.2640   -7.3901    0.0000 O   0  0  0  0  0  0  0  0  0  0  0  0
    7.4561   -6.5728    0.0000 N   0  0  0  0  0  0  0  0  0  0  0  0
    6.8330   -5.2084    0.0000 C   0  0  0  0  0  0  0  0  0  0  0  0
    8.1320   -4.4584    0.0000 O   0  0  0  0  0  0  0  0  0  0  0  0
    5.9629   -3.9865    0.0000 C   0  0  0  0  0  0  0  0  0  0  0  0
    4.8773   -2.9514    0.0000 C   0  0  0  0  0  0  0  0  0  0  0  0
    5.8046   -1.7723    0.0000 C   0  0  0  0  0  0  0  0  0  0  0  0
    7.2893   -1.9858    0.0000 C   0  0  0  0  0  0  0  0  0  0  0  0
    8.2165   -0.8067    0.0000 C   0  0  0  0  0  0  0  0  0  0  0  0
    9.7013   -1.0202    0.0000 C   0  0  0  0  0  0  0  0  0  0  0  0
   10.6285    0.1589    0.0000 C   0  0  0  0  0  0  0  0  0  0  0  0
   10.0710    1.5515    0.0000 C   0  0  0  0  0  0  0  0  0  0  0  0
    8.5863    1.7649    0.0000 C   0  0  0  0  0  0  0  0  0  0  0  0
    7.6590    0.5859    0.0000 C   0  0  0  0  0  0  0  0  0  0  0  0
    3.6154   -2.1404    0.0000 N   0  0  0  0  0  0  0  0  0  0  0  0
    2.2229   -1.5829    0.0000 C   0  0  0  0  0  0  0  0  0  0  0  0
    2.6455   -0.1437    0.0000 O   0  0  0  0  0  0  0  0  0  0  0  0
    0.7500   -1.2990    0.0000 C   0  0  0  0  0  0  0  0  0  0  0  0
    1.5000    0.0000    0.0000 C   0  0  0  0  0  0  0  0  0  0  0  0
    0.7500    1.2990    0.0000 C   0  0  0  0  0  0  0  0  0  0  0  0
   -0.7500    1.2990    0.0000 C   0  0  0  0  0  0  0  0  0  0  0  0
   -1.5000    0.0000    0.0000 C   0  0  0  0  0  0  0  0  0  0  0  0
   -0.7500   -1.2990    0.0000 N   0  0  0  0  0  0  0  0  0  0  0  0
   -2.2229   -1.5829    0.0000 C   0  0  0  0  0  0  0  0  0  0  0  0
   -2.6455   -0.1437    0.0000 O   0  0  0  0  0  0  0  0  0  0  0  0
   -3.6154   -2.1404    0.0000 C   0  0  0  0  0  0  0  0  0  0  0  0
   -4.3028   -0.8072    0.0000 O   0  0  0  0  0  0  0  0  0  0  0  0
   -4.8773   -2.9514    0.0000 C   0  0  0  0  0  0  0  0  0  0  0  0
   -6.2869   -2.4383    0.0000 C   0  0  0  0  0  0  0  0  0  0  0  0
   -5.0436   -1.4606    0.0000 C   0  0  0  0  0  0  0  0  0  0  0  0
   -5.9629   -3.9865    0.0000 C   0  0  0  0  0  0  0  0  0  0  0  0
   -6.8330   -5.2084    0.0000 O   0  0  0  0  0  0  0  0  0  0  0  0
   -7.4561   -6.5728    0.0000 C   0  0  0  0  0  0  0  0  0  0  0  0
   -8.8736   -6.0822    0.0000 O   0  0  0  0  0  0  0  0  0  0  0  0
  1  2  1  0
  2  3  1  0
  2  4  1  0
  5  4  1  1
  5  6  1  0
  6  7  1  0
  7  8  2  0
  7  9  1  0
  9 10  1  1
 10 11  1  0
 11 12  1  0
 12 13  2  0
 12 14  1  0
  9 15  1  0
 15 16  1  0
 16 17  2  0
 16 18  1  0
 18 19  1  1
 19 20  2  0
 20 21  1  0
 21 22  2  0
 22 23  1  0
 23 24  2  0
 18 25  1  0
 25 26  1  0
 26 27  2  0
 26 28  1  0
 28 29  1  6
 29 30  1  0
 30 31  2  0
 31 32  1  0
 32 33  2  0
 33 34  1  0
 34 35  2  0
 28 36  1  0
 36 37  1  0
 37 38  2  0
 37 39  1  0
 39 40  1  1
 40 41  1  0
 41 42  1  0
 42 43  1  0
 39 44  1  0
 44 45  1  0
 45 46  2  0
 45 47  1  0
 47 48  1  1
 48 49  1  0
 49 50  1  0
 50 51  1  0
 51 52  1  0
 52 53  2  0
 52 54  1  0
 54 55  1  1
 55 56  1  0
 56 57  1  0
 57 58  1  0
 57 59  2  0
 54 60  1  0
 60 61  1  0
 61 62  2  0
 61 63  1  0
 63 64  1  0
 64 65  1  6
 65 66  1  0
 66 67  1  0
 67 68  2  0
 68 69  1  0
 69 70  2  0
 70 71  1  0
 71 72  2  0
 64 73  1  0
 73 74  1  0
 74 75  2  0
 74 76  1  0
 76 77  1  1
 77 78  1  0
 78 79  1  0
 79 80  1  0
 80 81  1  0
 81 82  1  0
 82 83  2  0
 82 84  1  0
 84 85  2  0
 84 86  1  0
 86 87  1  0
 86 88  1  0
 86 89  1  0
 89 90  1  0
 90 91  1  0
 91 92  2  0
 91  5  1  0
 24 19  1  0
 35 30  1  0
 51 47  1  0
 72 67  1  0
 81 76  1  0
M  END
>  <molecule_chembl_id>  (52) 
CHEMBL3218640

>  <canonical_smiles>  (52) 
CC(C)C[C@@H]1NC(=O)[C@H](CCC(=O)O)NC(=O)[C@H](c2ccccc2)NC(=O)[C@@H](Cc2ccccc2)NC(=O)[C@H](CCCN)NC(=O)[C@@H]2CCCN2C(=O)[C@H](CCC(N)=O)NC(=O)C[C@@H](CCc2ccccc2)NC(=O)[C@@H]2CCCCN2C(=O)C(=O)C(C)(C)COC1=O

>  <pchembl_value_mean>  (52) 
5.0

>  <inchi>  (52) 
InChI=1S/C66H89N11O15/c1-40(2)36-49-65(91)92-39-66(3,4)56(82)64(90)77-34-15-14-25-50(77)60(86)69-44(28-27-41-18-8-5-9-19-41)38-53(79)70-47(29-31-52(68)78)63(89)76-35-17-26-51(76)61(87)71-45(24-16-33-67)57(83)73-48(37-42-20-10-6-11-21-42)59(85)75-55(43-22-12-7-13-23-43)62(88)72-46(58(84)74-49)30-32-54(80)81/h5-13,18-23,40,44-51,55H,14-17,24-39,67H2,1-4H3,(H2,68,78)(H,69,86)(H,70,79)(H,71,87)(H,72,88)(H,73,83)(H,74,84)(H,75,85)(H,80,81)/t44-,45+,46+,47+,48-,49+,50+,51+,55+/m1/s1

$$$$

     RDKit          2D

109116  0  0  0  0  0  0  0  0999 V2000
  -11.8942   -4.8185    0.0000 C   0  0  0  0  0  0  0  0  0  0  0  0
  -11.3367   -6.2110    0.0000 C   0  0  0  0  0  0  0  0  0  0  0  0
   -9.8520   -6.4245    0.0000 C   0  0  0  0  0  0  0  0  0  0  0  0
   -9.2945   -7.8170    0.0000 C   0  0  0  0  0  0  0  0  0  0  0  0
   -7.8098   -8.0305    0.0000 C   0  0  0  0  0  0  0  0  0  0  0  0
   -7.8811   -9.5288    0.0000 N   0  0  0  0  0  0  0  0  0  0  0  0
   -7.6677  -11.0136    0.0000 C   0  0  0  0  0  0  0  0  0  0  0  0
   -9.1254  -11.3672    0.0000 O   0  0  0  0  0  0  0  0  0  0  0  0
   -7.1771  -12.4311    0.0000 C   0  0  0  0  0  0  0  0  0  0  0  0
   -8.5415  -13.0542    0.0000 C   0  0  0  0  0  0  0  0  0  0  0  0
   -9.7634  -12.1841    0.0000 C   0  0  0  0  0  0  0  0  0  0  0  0
   -9.6208  -10.6909    0.0000 C   0  0  0  0  0  0  0  0  0  0  0  0
  -10.8427   -9.8208    0.0000 C   0  0  0  0  0  0  0  0  0  0  0  0
  -12.2071  -10.4439    0.0000 C   0  0  0  0  0  0  0  0  0  0  0  0
  -13.4290   -9.5738    0.0000 C   0  0  0  0  0  0  0  0  0  0  0  0
  -14.7934  -10.1970    0.0000 C   0  0  0  0  0  0  0  0  0  0  0  0
  -14.9360  -11.6902    0.0000 C   0  0  0  0  0  0  0  0  0  0  0  0
  -13.7141  -12.5602    0.0000 C   0  0  0  0  0  0  0  0  0  0  0  0
  -12.3497  -11.9371    0.0000 C   0  0  0  0  0  0  0  0  0  0  0  0
  -11.1278  -12.8072    0.0000 C   0  0  0  0  0  0  0  0  0  0  0  0
   -6.4271  -13.7301    0.0000 N   0  0  0  0  0  0  0  0  0  0  0  0
   -5.4448  -14.8637    0.0000 C   0  0  0  0  0  0  0  0  0  0  0  0
   -6.4799  -15.9493    0.0000 O   0  0  0  0  0  0  0  0  0  0  0  0
   -4.2657  -15.7910    0.0000 C   0  0  0  0  0  0  0  0  0  0  0  0
   -5.0767  -17.0528    0.0000 C   0  0  0  0  0  0  0  0  0  0  0  0
   -6.5750  -16.9815    0.0000 C   0  0  0  0  0  0  0  0  0  0  0  0
   -7.2623  -15.6482    0.0000 C   0  0  0  0  0  0  0  0  0  0  0  0
   -8.7606  -15.5768    0.0000 C   0  0  0  0  0  0  0  0  0  0  0  0
   -9.5716  -16.8387    0.0000 C   0  0  0  0  0  0  0  0  0  0  0  0
  -11.0699  -16.7673    0.0000 C   0  0  0  0  0  0  0  0  0  0  0  0
  -11.8808  -18.0292    0.0000 C   0  0  0  0  0  0  0  0  0  0  0  0
  -11.1935  -19.3625    0.0000 C   0  0  0  0  0  0  0  0  0  0  0  0
   -9.6952  -19.4338    0.0000 C   0  0  0  0  0  0  0  0  0  0  0  0
   -8.8842  -18.1720    0.0000 C   0  0  0  0  0  0  0  0  0  0  0  0
   -7.3859  -18.2433    0.0000 C   0  0  0  0  0  0  0  0  0  0  0  0
   -2.9324  -16.4783    0.0000 N   0  0  0  0  0  0  0  0  0  0  0  0
   -1.4932  -16.9009    0.0000 C   0  0  0  0  0  0  0  0  0  0  0  0
   -1.7771  -18.3738    0.0000 O   0  0  0  0  0  0  0  0  0  0  0  0
    0.0000  -17.0435    0.0000 C   0  0  0  0  0  0  0  0  0  0  0  0
    0.0000  -18.5435    0.0000 C   0  0  0  0  0  0  0  0  0  0  0  0
   -1.2990  -19.2935    0.0000 C   0  0  0  0  0  0  0  0  0  0  0  0
   -1.2990  -20.7935    0.0000 C   0  0  0  0  0  0  0  0  0  0  0  0
   -2.5981  -21.5435    0.0000 C   0  0  0  0  0  0  0  0  0  0  0  0
   -2.5981  -23.0435    0.0000 N   0  0  0  0  0  0  0  0  0  0  0  0
    1.4932  -16.9009    0.0000 N   0  0  0  0  0  0  0  0  0  0  0  0
    2.9324  -16.4783    0.0000 C   0  0  0  0  0  0  0  0  0  0  0  0
    3.4899  -17.8708    0.0000 O   0  0  0  0  0  0  0  0  0  0  0  0
    4.2657  -15.7910    0.0000 C   0  0  0  0  0  0  0  0  0  0  0  0
    5.0767  -17.0528    0.0000 C   0  0  0  0  0  0  0  0  0  0  0  0
    4.3893  -18.3861    0.0000 C   0  0  0  0  0  0  0  0  0  0  0  0
    5.2003  -19.6480    0.0000 C   0  0  0  0  0  0  0  0  0  0  0  0
    4.5129  -20.9812    0.0000 N   0  0  0  0  0  0  0  0  0  0  0  0
    5.3239  -22.2431    0.0000 C   0  0  0  0  0  0  0  0  0  0  0  0
    6.8222  -22.1717    0.0000 N   0  0  0  0  0  0  0  0  0  0  0  0
    4.6366  -23.5764    0.0000 N   0  0  0  0  0  0  0  0  0  0  0  0
    5.4448  -14.8637    0.0000 N   0  0  0  0  0  0  0  0  0  0  0  0
    6.4271  -13.7301    0.0000 C   0  0  0  0  0  0  0  0  0  0  0  0
    7.6489  -14.6002    0.0000 O   0  0  0  0  0  0  0  0  0  0  0  0
    7.1771  -12.4311    0.0000 C   0  0  0  0  0  0  0  0  0  0  0  0
    8.5415  -13.0542    0.0000 C   0  0  0  0  0  0  0  0  0  0  0  0
    8.6841  -14.5474    0.0000 C   0  0  0  0  0  0  0  0  0  0  0  0
    7.4622  -15.4175    0.0000 C   0  0  0  0  0  0  0  0  0  0  0  0
    7.6048  -16.9107    0.0000 C   0  0  0  0  0  0  0  0  0  0  0  0
    8.9693  -17.5338    0.0000 C   0  0  0  0  0  0  0  0  0  0  0  0
    9.1119  -19.0270    0.0000 F   0  0  0  0  0  0  0  0  0  0  0  0
   10.1911  -16.6637    0.0000 C   0  0  0  0  0  0  0  0  0  0  0  0
   10.0486  -15.1705    0.0000 C   0  0  0  0  0  0  0  0  0  0  0  0
    7.6677  -11.0136    0.0000 N   0  0  0  0  0  0  0  0  0  0  0  0
    7.8811   -9.5288    0.0000 C   0  0  0  0  0  0  0  0  0  0  0  0
    9.3794   -9.6002    0.0000 O   0  0  0  0  0  0  0  0  0  0  0  0
    7.8098   -8.0305    0.0000 C   0  0  0  0  0  0  0  0  0  0  0  0
    9.2945   -7.8170    0.0000 C   0  0  0  0  0  0  0  0  0  0  0  0
   10.2217   -8.9961    0.0000 C   0  0  0  0  0  0  0  0  0  0  0  0
   11.7065   -8.7827    0.0000 C   0  0  0  0  0  0  0  0  0  0  0  0
   12.6337   -9.9617    0.0000 N   0  0  0  0  0  0  0  0  0  0  0  0
   12.2640   -7.3901    0.0000 O   0  0  0  0  0  0  0  0  0  0  0  0
    7.4561   -6.5728    0.0000 N   0  0  0  0  0  0  0  0  0  0  0  0
    6.8330   -5.2084    0.0000 C   0  0  0  0  0  0  0  0  0  0  0  0
    8.1320   -4.4584    0.0000 O   0  0  0  0  0  0  0  0  0  0  0  0
    5.9629   -3.9865    0.0000 C   0  0  0  0  0  0  0  0  0  0  0  0
    4.8773   -2.9514    0.0000 C   0  0  0  0  0  0  0  0  0  0  0  0
    5.8046   -1.7723    0.0000 C   0  0  0  0  0  0  0  0  0  0  0  0
    7.2893   -1.9858    0.0000 C   0  0  0  0  0  0  0  0  0  0  0  0
    8.2165   -0.8067    0.0000 C   0  0  0  0  0  0  0  0  0  0  0  0
    9.7013   -1.0202    0.0000 C   0  0  0  0  0  0  0  0  0  0  0  0
   10.6285    0.1589    0.0000 C   0  0  0  0  0  0  0  0  0  0  0  0
   10.0710    1.5515    0.0000 C   0  0  0  0  0  0  0  0  0  0  0  0
    8.5863    1.7649    0.0000 C   0  0  0  0  0  0  0  0  0  0  0  0
    7.6590    0.5859    0.0000 C   0  0  0  0  0  0  0  0  0  0  0  0
    3.6154   -2.1404    0.0000 N   0  0  0  0  0  0  0  0  0  0  0  0
    2.2229   -1.5829    0.0000 C   0  0  0  0  0  0  0  0  0  0  0  0
    2.6455   -0.1437    0.0000 O   0  0  0  0  0  0  0  0  0  0  0  0
    0.7500   -1.2990    0.0000 C   0  0  0  0  0  0  0  0  0  0  0  0
    1.5000    0.0000    0.0000 C   0  0  0  0  0  0  0  0  0  0  0  0
    0.7500    1.2990    0.0000 C   0  0  0  0  0  0  0  0  0  0  0  0
   -0.7500    1.2990    0.0000 C   0  0  0  0  0  0  0  0  0  0  0  0
   -1.5000    0.0000    0.0000 C   0  0  0  0  0  0  0  0  0  0  0  0
   -0.7500   -1.2990    0.0000 N   0  0  0  0  0  0  0  0  0  0  0  0
   -2.2229   -1.5829    0.0000 C   0  0  0  0  0  0  0  0  0  0  0  0
   -2.6455   -0.1437    0.0000 O   0  0  0  0  0  0  0  0  0  0  0  0
   -3.6154   -2.1404    0.0000 C   0  0  0  0  0  0  0  0  0  0  0  0
   -4.3028   -0.8072    0.0000 O   0  0  0  0  0  0  0  0  0  0  0  0
   -4.8773   -2.9514    0.0000 C   0  0  0  0  0  0  0  0  0  0  0  0
   -6.2869   -2.4383    0.0000 C   0  0  0  0  0  0  0  0  0  0  0  0
   -5.0436   -1.4606    0.0000 C   0  0  0  0  0  0  0  0  0  0  0  0
   -5.9629   -3.9865    0.0000 C   0  0  0  0  0  0  0  0  0  0  0  0
   -6.8330   -5.2084    0.0000 O   0  0  0  0  0  0  0  0  0  0  0  0
   -7.4561   -6.5728    0.0000 C   0  0  0  0  0  0  0  0  0  0  0  0
   -8.8736   -6.0822    0.0000 O   0  0  0  0  0  0  0  0  0  0  0  0
  1  2  1  0
  2  3  1  0
  3  4  1  0
  5  4  1  6
  5  6  1  0
  6  7  1  0
  7  8  2  0
  7  9  1  0
  9 10  1  6
 10 11  1  0
 11 12  2  0
 12 13  1  0
 13 14  2  0
 14 15  1  0
 15 16  2  0
 16 17  1  0
 17 18  2  0
 18 19  1  0
 19 20  2  0
  9 21  1  0
 21 22  1  0
 22 23  2  0
 22 24  1  0
 24 25  1  6
 25 26  1  0
 26 27  2  0
 27 28  1  0
 28 29  2  0
 29 30  1  0
 30 31  2  0
 31 32  1  0
 32 33  2  0
 33 34  1  0
 34 35  2  0
 24 36  1  0
 36 37  1  0
 37 38  2  0
 37 39  1  0
 39 40  1  6
 40 41  1  0
 41 42  1  0
 42 43  1  0
 43 44  1  0
 39 45  1  0
 45 46  1  0
 46 47  2  0
 46 48  1  0
 48 49  1  1
 49 50  1  0
 50 51  1  0
 51 52  1  0
 52 53  1  0
 53 54  2  0
 53 55  1  0
 48 56  1  0
 56 57  1  0
 57 58  2  0
 57 59  1  0
 59 60  1  1
 60 61  1  0
 61 62  2  0
 62 63  1  0
 63 64  2  0
 64 65  1  0
 64 66  1  0
 66 67  2  0
 59 68  1  0
 68 69  1  0
 69 70  2  0
 69 71  1  0
 71 72  1  1
 72 73  1  0
 73 74  1  0
 74 75  1  0
 74 76  2  0
 71 77  1  0
 77 78  1  0
 78 79  2  0
 78 80  1  0
 80 81  1  0
 81 82  1  6
 82 83  1  0
 83 84  1  0
 84 85  2  0
 85 86  1  0
 86 87  2  0
 87 88  1  0
 88 89  2  0
 81 90  1  0
 90 91  1  0
 91 92  2  0
 91 93  1  0
 93 94  1  1
 94 95  1  0
 95 96  1  0
 96 97  1  0
 97 98  1  0
 98 99  1  0
 99100  2  0
 99101  1  0
101102  2  0
101103  1  0
103104  1  0
103105  1  0
103106  1  0
106107  1  0
107108  1  0
108109  2  0
108  5  1  0
 20 11  1  0
 35 26  1  0
 67 61  1  0
 89 84  1  0
 98 93  1  0
 19 14  1  0
 34 29  1  0
M  END
>  <molecule_chembl_id>  (53) 
CHEMBL3218636

>  <canonical_smiles>  (53) 
CCCC[C@H]1NC(=O)[C@@H](Cc2ccc3ccccc3c2)NC(=O)[C@@H](Cc2ccc3ccccc3c2)NC(=O)[C@@H](CCCCN)NC(=O)[C@H](CCCNC(=N)N)NC(=O)[C@H](Cc2ccc(F)cc2)NC(=O)[C@H](CCC(N)=O)NC(=O)C[C@@H](CCc2ccccc2)NC(=O)[C@@H]2CCCCN2C(=O)C(=O)C(C)(C)COC1=O

>  <pchembl_value_mean>  (53) 
5.0

>  <inchi>  (53) 
InChI=1S/C81H103FN14O13/c1-4-5-24-63-79(108)109-49-81(2,3)70(99)78(107)96-42-16-14-27-67(96)77(106)88-59(37-32-50-18-7-6-8-19-50)48-69(98)89-62(38-39-68(84)97)73(102)93-64(45-51-30-35-58(82)36-31-51)74(103)91-61(26-17-41-87-80(85)86)71(100)90-60(25-13-15-40-83)72(101)94-66(47-53-29-34-55-21-10-12-23-57(55)44-53)76(105)95-65(75(104)92-63)46-52-28-33-54-20-9-11-22-56(54)43-52/h6-12,18-23,28-31,33-36,43-44,59-67H,4-5,13-17,24-27,32,37-42,45-49,83H2,1-3H3,(H2,84,97)(H,88,106)(H,89,98)(H,90,100)(H,91,103)(H,92,104)(H,93,102)(H,94,101)(H,95,105)(H4,85,86,87)/t59-,60-,61+,62+,63-,64+,65-,66-,67+/m1/s1

$$$$

     RDKit          2D

 54 58  0  0  0  0  0  0  0  0999 V2000
   10.2274    2.8889    0.0000 C   0  0  0  0  0  0  0  0  0  0  0  0
    9.3640    4.1154    0.0000 C   0  0  0  0  0  0  0  0  0  0  0  0
    9.9945    5.4765    0.0000 C   0  0  0  0  0  0  0  0  0  0  0  0
    7.8700    3.9810    0.0000 C   0  0  0  0  0  0  0  0  0  0  0  0
    7.0066    5.2076    0.0000 C   0  0  0  0  0  0  0  0  0  0  0  0
    5.5126    5.0731    0.0000 N   0  0  0  0  0  0  0  0  0  0  0  0
    4.6492    6.2997    0.0000 C   0  0  0  0  0  0  0  0  0  0  0  0
    5.2797    7.6607    0.0000 O   0  0  0  0  0  0  0  0  0  0  0  0
    3.1552    6.1652    0.0000 C   0  0  0  0  0  0  0  0  0  0  0  0
    3.0655    4.6679    0.0000 C   0  0  0  0  0  0  0  0  0  0  0  0
    2.5385    3.2636    0.0000 O   0  0  0  0  0  0  0  0  0  0  0  0
    1.6209    2.0770    0.0000 C   0  0  0  0  0  0  0  0  0  0  0  0
    0.3943    1.2135    0.0000 C   0  0  0  0  0  0  0  0  0  0  0  0
    1.2760    0.0000    0.0000 C   0  0  0  0  0  0  0  0  0  0  0  0
    0.3943   -1.2135    0.0000 N   0  0  0  0  0  0  0  0  0  0  0  0
   -1.0323   -0.7500    0.0000 N   0  0  0  0  0  0  0  0  0  0  0  0
   -1.0323    0.7500    0.0000 N   0  0  0  0  0  0  0  0  0  0  0  0
   -2.5321    0.7276    0.0000 C   0  0  0  0  0  0  0  0  0  0  0  0
   -3.9719    1.1482    0.0000 C   0  0  0  0  0  0  0  0  0  0  0  0
   -5.2238    1.9745    0.0000 C   0  0  0  0  0  0  0  0  0  0  0  0
   -6.1765    3.1332    0.0000 C   0  0  0  0  0  0  0  0  0  0  0  0
   -6.7453    4.5211    0.0000 C   0  0  0  0  0  0  0  0  0  0  0  0
   -8.2025    4.1655    0.0000 O   0  0  0  0  0  0  0  0  0  0  0  0
   -6.8798    6.0151    0.0000 N   0  0  0  0  0  0  0  0  0  0  0  0
   -6.5679    7.4823    0.0000 C   0  0  0  0  0  0  0  0  0  0  0  0
   -7.9722    8.0094    0.0000 C   0  0  0  0  0  0  0  0  0  0  0  0
   -5.8374    8.7924    0.0000 C   0  0  0  0  0  0  0  0  0  0  0  0
   -7.0240    9.7100    0.0000 O   0  0  0  0  0  0  0  0  0  0  0  0
   -4.7532    9.8290    0.0000 N   0  0  0  0  0  0  0  0  0  0  0  0
   -5.8059   10.8976    0.0000 C   0  0  0  0  0  0  0  0  0  0  0  0
   -5.1150   12.2290    0.0000 C   0  0  0  0  0  0  0  0  0  0  0  0
   -3.6352   11.9832    0.0000 C   0  0  0  0  0  0  0  0  0  0  0  0
   -3.4117   10.5000    0.0000 C   0  0  0  0  0  0  0  0  0  0  0  0
   -1.9319   10.7457    0.0000 C   0  0  0  0  0  0  0  0  0  0  0  0
   -1.9544   12.2455    0.0000 O   0  0  0  0  0  0  0  0  0  0  0  0
   -0.4455   10.5444    0.0000 N   0  0  0  0  0  0  0  0  0  0  0  0
    0.9155    9.9138    0.0000 C   0  0  0  0  0  0  0  0  0  0  0  0
    1.7419   11.1657    0.0000 C   0  0  0  0  0  0  0  0  0  0  0  0
    1.0709   12.5073    0.0000 C   0  0  0  0  0  0  0  0  0  0  0  0
   -0.4264   12.5970    0.0000 C   0  0  0  0  0  0  0  0  0  0  0  0
   -1.0974   13.9385    0.0000 C   0  0  0  0  0  0  0  0  0  0  0  0
   -0.2710   15.1904    0.0000 C   0  0  0  0  0  0  0  0  0  0  0  0
    1.2263   15.1007    0.0000 C   0  0  0  0  0  0  0  0  0  0  0  0
    2.0526   16.3525    0.0000 C   0  0  0  0  0  0  0  0  0  0  0  0
    3.5500   16.2628    0.0000 C   0  0  0  0  0  0  0  0  0  0  0  0
    4.2209   14.9213    0.0000 C   0  0  0  0  0  0  0  0  0  0  0  0
    3.3946   13.6694    0.0000 C   0  0  0  0  0  0  0  0  0  0  0  0
    1.8973   13.7591    0.0000 C   0  0  0  0  0  0  0  0  0  0  0  0
    2.0303    8.9101    0.0000 C   0  0  0  0  0  0  0  0  0  0  0  0
    3.1889    9.8628    0.0000 O   0  0  0  0  0  0  0  0  0  0  0  0
    2.7996    7.6225    0.0000 N   0  0  0  0  0  0  0  0  0  0  0  0
    7.6371    6.5686    0.0000 C   0  0  0  0  0  0  0  0  0  0  0  0
    9.1311    6.7031    0.0000 N   0  0  0  0  0  0  0  0  0  0  0  0
    6.7737    7.7952    0.0000 O   0  0  0  0  0  0  0  0  0  0  0  0
  1  2  1  0
  2  3  1  0
  2  4  1  0
  5  4  1  6
  5  6  1  0
  6  7  1  0
  7  8  2  0
  9  7  1  6
  9 10  1  0
 10 11  1  0
 11 12  1  0
 12 13  1  0
 13 14  2  0
 14 15  1  0
 15 16  2  0
 16 17  1  0
 17 18  1  0
 18 19  1  0
 19 20  1  0
 20 21  1  0
 21 22  1  0
 22 23  2  0
 22 24  1  0
 24 25  1  0
 25 26  1  1
 25 27  1  0
 27 28  2  0
 27 29  1  0
 29 30  1  0
 30 31  1  0
 31 32  1  0
 33 32  1  1
 33 34  1  0
 34 35  2  0
 34 36  1  0
 36 37  1  0
 37 38  1  1
 38 39  1  0
 39 40  2  0
 40 41  1  0
 41 42  2  0
 42 43  1  0
 43 44  2  0
 44 45  1  0
 45 46  2  0
 46 47  1  0
 47 48  2  0
 37 49  1  0
 49 50  2  0
 49 51  1  0
  5 52  1  0
 52 53  1  0
 52 54  2  0
 51  9  1  0
 17 13  1  0
 33 29  1  0
 48 39  1  0
 48 43  1  0
M  END
>  <molecule_chembl_id>  (54) 
CHEMBL5089045

>  <canonical_smiles>  (54) 
CC(C)C[C@H](NC(=O)[C@@H]1COCc2cnnn2CCCCC(=O)N[C@@H](C)C(=O)N2CCC[C@H]2C(=O)N[C@@H](Cc2cccc3ccccc23)C(=O)N1)C(N)=O

>  <pchembl_value_mean>  (54) 
5.01

>  <inchi>  (54) 
InChI=1S/C38H51N9O7/c1-23(2)18-29(34(39)49)42-36(51)31-22-54-21-27-20-40-45-47(27)17-7-6-15-33(48)41-24(3)38(53)46-16-9-14-32(46)37(52)43-30(35(50)44-31)19-26-12-8-11-25-10-4-5-13-28(25)26/h4-5,8,10-13,20,23-24,29-32H,6-7,9,14-19,21-22H2,1-3H3,(H2,39,49)(H,41,48)(H,42,51)(H,43,52)(H,44,50)/t24-,29-,30-,31-,32-/m0/s1

$$$$

     RDKit          2D

164172  0  0  0  0  0  0  0  0999 V2000
    5.3450  -19.1808    0.0000 C   0  0  0  0  0  0  0  0  0  0  0  0
    4.5000  -17.9414    0.0000 C   0  0  0  0  0  0  0  0  0  0  0  0
    3.0042  -18.0535    0.0000 C   0  0  0  0  0  0  0  0  0  0  0  0
    2.8424  -18.8341    0.0000 C   0  0  0  0  0  0  0  0  0  0  0  0
    2.1592  -16.8142    0.0000 C   0  0  0  0  0  0  0  0  0  0  0  0
    2.8100  -15.4627    0.0000 N   0  0  0  0  0  0  0  0  0  0  0  0
    1.9651  -14.2233    0.0000 C   0  0  0  0  0  0  0  0  0  0  0  0
    0.4693  -14.3354    0.0000 O   0  0  0  0  0  0  0  0  0  0  0  0
    2.6159  -12.8719    0.0000 C   0  0  0  0  0  0  0  0  0  0  0  0
    4.1117  -12.7598    0.0000 C   0  0  0  0  0  0  0  0  0  0  0  0
    4.9567  -13.9992    0.0000 C   0  0  0  0  0  0  0  0  0  0  0  0
    6.4525  -13.8871    0.0000 C   0  0  0  0  0  0  0  0  0  0  0  0
    7.2975  -15.1264    0.0000 N   0  0  0  0  0  0  0  0  0  0  0  0
    7.1033  -12.5356    0.0000 O   0  0  0  0  0  0  0  0  0  0  0  0
    1.7709  -11.6325    0.0000 N   0  0  0  0  0  0  0  0  0  0  0  0
    2.4217  -10.2811    0.0000 C   0  0  0  0  0  0  0  0  0  0  0  0
    3.9175  -10.1690    0.0000 O   0  0  0  0  0  0  0  0  0  0  0  0
    1.5768   -9.0417    0.0000 C   0  0  0  0  0  0  0  0  0  0  0  0
    0.0810   -9.1538    0.0000 C   0  0  0  0  0  0  0  0  0  0  0  0
   -0.5699  -10.5053    0.0000 O   0  0  0  0  0  0  0  0  0  0  0  0
    2.2276   -7.6903    0.0000 N   0  0  0  0  0  0  0  0  0  0  0  0
    3.7234   -7.5782    0.0000 C   0  0  0  0  0  0  0  0  0  0  0  0
    4.5684   -8.8175    0.0000 O   0  0  0  0  0  0  0  0  0  0  0  0
    4.3742   -6.2267    0.0000 C   0  0  0  0  0  0  0  0  0  0  0  0
    3.1041   -5.4287    0.0000 C   0  0  0  0  0  0  0  0  0  0  0  0
    2.0435   -4.3680    0.0000 N   0  0  0  0  0  0  0  0  0  0  0  0
    1.2454   -3.0979    0.0000 C   0  0  0  0  0  0  0  0  0  0  0  0
   -0.1060   -3.7487    0.0000 O   0  0  0  0  0  0  0  0  0  0  0  0
    0.7500   -1.2990    0.0000 C   0  0  0  0  0  0  0  0  0  0  0  0
    1.5000    0.0000    0.0000 C   0  0  0  0  0  0  0  0  0  0  0  0
    0.7500    1.2990    0.0000 C   0  0  0  0  0  0  0  0  0  0  0  0
   -0.7500    1.2990    0.0000 C   0  0  0  0  0  0  0  0  0  0  0  0
   -1.5000    0.0000    0.0000 C   0  0  0  0  0  0  0  0  0  0  0  0
   -0.7500   -1.2990    0.0000 C   0  0  0  0  0  0  0  0  0  0  0  0
   -2.7290    0.8600    0.0000 C   0  0  0  0  0  0  0  0  0  0  0  0
   -3.7259   -0.2608    0.0000 O   0  0  0  0  0  0  0  0  0  0  0  0
   -3.7264    1.9803    0.0000 N   0  0  0  0  0  0  0  0  0  0  0  0
   -4.4387    3.3004    0.0000 C   0  0  0  0  0  0  0  0  0  0  0  0
   -5.8326    2.7463    0.0000 C   0  0  0  0  0  0  0  0  0  0  0  0
   -6.0496    1.2620    0.0000 C   0  0  0  0  0  0  0  0  0  0  0  0
   -4.8727    0.3320    0.0000 C   0  0  0  0  0  0  0  0  0  0  0  0
   -5.0897   -1.1522    0.0000 C   0  0  0  0  0  0  0  0  0  0  0  0
   -6.4836   -1.7064    0.0000 C   0  0  0  0  0  0  0  0  0  0  0  0
   -6.7006   -3.1906    0.0000 C   0  0  0  0  0  0  0  0  0  0  0  0
   -8.0945   -3.7448    0.0000 C   0  0  0  0  0  0  0  0  0  0  0  0
   -9.2713   -2.8148    0.0000 C   0  0  0  0  0  0  0  0  0  0  0  0
   -9.0543   -1.3305    0.0000 C   0  0  0  0  0  0  0  0  0  0  0  0
   -7.6605   -0.7764    0.0000 C   0  0  0  0  0  0  0  0  0  0  0  0
   -7.4434    0.7079    0.0000 C   0  0  0  0  0  0  0  0  0  0  0  0
   -4.8273    4.7492    0.0000 C   0  0  0  0  0  0  0  0  0  0  0  0
   -6.3114    4.5314    0.0000 O   0  0  0  0  0  0  0  0  0  0  0  0
   -4.8713    6.2486    0.0000 N   0  0  0  0  0  0  0  0  0  0  0  0
   -4.5684    7.7177    0.0000 C   0  0  0  0  0  0  0  0  0  0  0  0
   -5.9924    8.1891    0.0000 C   0  0  0  0  0  0  0  0  0  0  0  0
   -6.2961    9.6580    0.0000 O   0  0  0  0  0  0  0  0  0  0  0  0
   -3.9348    9.0773    0.0000 C   0  0  0  0  0  0  0  0  0  0  0  0
   -5.2117    9.8644    0.0000 O   0  0  0  0  0  0  0  0  0  0  0  0
   -3.0048   10.2542    0.0000 N   0  0  0  0  0  0  0  0  0  0  0  0
   -1.8284   11.1848    0.0000 C   0  0  0  0  0  0  0  0  0  0  0  0
   -2.6162   12.4613    0.0000 C   0  0  0  0  0  0  0  0  0  0  0  0
   -1.9046   13.7818    0.0000 C   0  0  0  0  0  0  0  0  0  0  0  0
   -2.6924   15.0582    0.0000 C   0  0  0  0  0  0  0  0  0  0  0  0
   -1.9809   16.3787    0.0000 N   0  0  0  0  0  0  0  0  0  0  0  0
   -4.1918   15.0142    0.0000 O   0  0  0  0  0  0  0  0  0  0  0  0
   -0.4691   11.8191    0.0000 C   0  0  0  0  0  0  0  0  0  0  0  0
   -0.9413   13.2428    0.0000 O   0  0  0  0  0  0  0  0  0  0  0  0
    0.9998   12.1228    0.0000 N   0  0  0  0  0  0  0  0  0  0  0  0
    2.4992   12.0796    0.0000 C   0  0  0  0  0  0  0  0  0  0  0  0
    2.7162   13.5638    0.0000 C   0  0  0  0  0  0  0  0  0  0  0  0
    1.5394   14.4938    0.0000 C   0  0  0  0  0  0  0  0  0  0  0  0
    0.1455   13.9397    0.0000 C   0  0  0  0  0  0  0  0  0  0  0  0
   -1.0314   14.8697    0.0000 C   0  0  0  0  0  0  0  0  0  0  0  0
   -0.8144   16.3539    0.0000 C   0  0  0  0  0  0  0  0  0  0  0  0
   -1.9912   17.2840    0.0000 C   0  0  0  0  0  0  0  0  0  0  0  0
   -1.7742   18.7682    0.0000 C   0  0  0  0  0  0  0  0  0  0  0  0
   -0.3804   19.3224    0.0000 C   0  0  0  0  0  0  0  0  0  0  0  0
    0.7965   18.3923    0.0000 C   0  0  0  0  0  0  0  0  0  0  0  0
    0.5795   16.9081    0.0000 C   0  0  0  0  0  0  0  0  0  0  0  0
    1.7564   15.9781    0.0000 C   0  0  0  0  0  0  0  0  0  0  0  0
    3.9482   11.6917    0.0000 C   0  0  0  0  0  0  0  0  0  0  0  0
    4.5017   13.0859    0.0000 O   0  0  0  0  0  0  0  0  0  0  0  0
    5.2687   10.9802    0.0000 N   0  0  0  0  0  0  0  0  0  0  0  0
    6.3895    9.9833    0.0000 C   0  0  0  0  0  0  0  0  0  0  0  0
    7.5098   10.9808    0.0000 C   0  0  0  0  0  0  0  0  0  0  0  0
    8.9338   10.5093    0.0000 C   0  0  0  0  0  0  0  0  0  0  0  0
   10.0540   11.5068    0.0000 C   0  0  0  0  0  0  0  0  0  0  0  0
    9.7503   12.9757    0.0000 C   0  0  0  0  0  0  0  0  0  0  0  0
    8.3263   13.4472    0.0000 C   0  0  0  0  0  0  0  0  0  0  0  0
    7.2061   12.4497    0.0000 C   0  0  0  0  0  0  0  0  0  0  0  0
    7.2502    8.7548    0.0000 C   0  0  0  0  0  0  0  0  0  0  0  0
    8.5703    9.4670    0.0000 O   0  0  0  0  0  0  0  0  0  0  0  0
    7.8044    7.3609    0.0000 N   0  0  0  0  0  0  0  0  0  0  0  0
    8.7712    6.3391    0.0000 C   0  0  0  0  0  0  0  0  0  0  0  0
    7.2806    6.5070    0.0000 C   0  0  0  0  0  0  0  0  0  0  0  0
    5.7900    6.3391    0.0000 C   0  0  0  0  0  0  0  0  0  0  0  0
    4.3742    5.8437    0.0000 C   0  0  0  0  0  0  0  0  0  0  0  0
    3.1041    5.0456    0.0000 C   0  0  0  0  0  0  0  0  0  0  0  0
    2.0435    3.9849    0.0000 N   0  0  0  0  0  0  0  0  0  0  0  0
    1.2454    2.7149    0.0000 C   0  0  0  0  0  0  0  0  0  0  0  0
   -0.1060    3.3657    0.0000 O   0  0  0  0  0  0  0  0  0  0  0  0
   10.1870    5.8437    0.0000 C   0  0  0  0  0  0  0  0  0  0  0  0
   10.8378    7.1951    0.0000 O   0  0  0  0  0  0  0  0  0  0  0  0
   11.4571    5.0456    0.0000 N   0  0  0  0  0  0  0  0  0  0  0  0
   12.5177    3.9849    0.0000 C   0  0  0  0  0  0  0  0  0  0  0  0
   13.6905    4.9202    0.0000 C   0  0  0  0  0  0  0  0  0  0  0  0
   15.0868    4.3722    0.0000 C   0  0  0  0  0  0  0  0  0  0  0  0
   15.3104    2.8889    0.0000 C   0  0  0  0  0  0  0  0  0  0  0  0
   16.7067    2.3409    0.0000 C   0  0  0  0  0  0  0  0  0  0  0  0
   17.8794    3.2761    0.0000 C   0  0  0  0  0  0  0  0  0  0  0  0
   17.6559    4.7594    0.0000 C   0  0  0  0  0  0  0  0  0  0  0  0
   16.2596    5.3074    0.0000 C   0  0  0  0  0  0  0  0  0  0  0  0
   13.3158    2.7149    0.0000 C   0  0  0  0  0  0  0  0  0  0  0  0
   14.6672    3.3657    0.0000 O   0  0  0  0  0  0  0  0  0  0  0  0
   13.8112    1.2990    0.0000 N   0  0  0  0  0  0  0  0  0  0  0  0
   13.9792   -0.1915    0.0000 C   0  0  0  0  0  0  0  0  0  0  0  0
   15.4792   -0.1915    0.0000 C   0  0  0  0  0  0  0  0  0  0  0  0
   13.8112   -1.6821    0.0000 C   0  0  0  0  0  0  0  0  0  0  0  0
   15.2736   -2.0159    0.0000 O   0  0  0  0  0  0  0  0  0  0  0  0
   13.3158   -3.0979    0.0000 N   0  0  0  0  0  0  0  0  0  0  0  0
   12.5177   -4.3680    0.0000 C   0  0  0  0  0  0  0  0  0  0  0  0
   13.6905   -5.3032    0.0000 C   0  0  0  0  0  0  0  0  0  0  0  0
   13.4669   -6.7865    0.0000 C   0  0  0  0  0  0  0  0  0  0  0  0
   14.6397   -7.7217    0.0000 C   0  0  0  0  0  0  0  0  0  0  0  0
   14.4161   -9.2050    0.0000 N   0  0  0  0  0  0  0  0  0  0  0  0
   15.5889  -10.1402    0.0000 C   0  0  0  0  0  0  0  0  0  0  0  0
   16.9852   -9.5922    0.0000 N   0  0  0  0  0  0  0  0  0  0  0  0
   15.3653  -11.6235    0.0000 N   0  0  0  0  0  0  0  0  0  0  0  0
   11.4571   -5.4287    0.0000 C   0  0  0  0  0  0  0  0  0  0  0  0
   12.3923   -6.6014    0.0000 O   0  0  0  0  0  0  0  0  0  0  0  0
   10.1870   -6.2267    0.0000 N   0  0  0  0  0  0  0  0  0  0  0  0
    8.7712   -6.7221    0.0000 C   0  0  0  0  0  0  0  0  0  0  0  0
    9.1050   -8.1845    0.0000 C   0  0  0  0  0  0  0  0  0  0  0  0
    8.0054   -9.2048    0.0000 C   0  0  0  0  0  0  0  0  0  0  0  0
    8.3392  -10.6672    0.0000 C   0  0  0  0  0  0  0  0  0  0  0  0
    9.7725  -11.1093    0.0000 N   0  0  0  0  0  0  0  0  0  0  0  0
   10.1063  -12.5717    0.0000 C   0  0  0  0  0  0  0  0  0  0  0  0
   11.5397  -13.0138    0.0000 N   0  0  0  0  0  0  0  0  0  0  0  0
    9.0067  -13.5920    0.0000 N   0  0  0  0  0  0  0  0  0  0  0  0
    7.2806   -6.8901    0.0000 C   0  0  0  0  0  0  0  0  0  0  0  0
    7.2806   -8.3901    0.0000 O   0  0  0  0  0  0  0  0  0  0  0  0
    5.7900   -6.7221    0.0000 N   0  0  0  0  0  0  0  0  0  0  0  0
    0.6634  -16.9262    0.0000 C   0  0  0  0  0  0  0  0  0  0  0  0
   -0.1816  -15.6869    0.0000 O   0  0  0  0  0  0  0  0  0  0  0  0
    0.0126  -18.2777    0.0000 N   0  0  0  0  0  0  0  0  0  0  0  0
    0.8576  -19.5171    0.0000 C   0  0  0  0  0  0  0  0  0  0  0  0
    2.3534  -19.4050    0.0000 C   0  0  0  0  0  0  0  0  0  0  0  0
    3.1984  -20.6443    0.0000 C   0  0  0  0  0  0  0  0  0  0  0  0
    4.6942  -20.5322    0.0000 C   0  0  0  0  0  0  0  0  0  0  0  0
    5.5391  -21.7716    0.0000 N   0  0  0  0  0  0  0  0  0  0  0  0
    7.0349  -21.6595    0.0000 C   0  0  0  0  0  0  0  0  0  0  0  0
    7.6858  -20.3080    0.0000 N   0  0  0  0  0  0  0  0  0  0  0  0
    7.8799  -22.8988    0.0000 N   0  0  0  0  0  0  0  0  0  0  0  0
    0.2067  -20.8685    0.0000 C   0  0  0  0  0  0  0  0  0  0  0  0
   -1.2891  -20.9806    0.0000 O   0  0  0  0  0  0  0  0  0  0  0  0
    1.0517  -22.1079    0.0000 N   0  0  0  0  0  0  0  0  0  0  0  0
    0.4009  -23.4593    0.0000 C   0  0  0  0  0  0  0  0  0  0  0  0
    1.2459  -24.6987    0.0000 C   0  0  0  0  0  0  0  0  0  0  0  0
    0.5951  -26.0501    0.0000 C   0  0  0  0  0  0  0  0  0  0  0  0
    1.4400  -27.2895    0.0000 C   0  0  0  0  0  0  0  0  0  0  0  0
    0.7892  -28.6409    0.0000 C   0  0  0  0  0  0  0  0  0  0  0  0
    1.6342  -29.8803    0.0000 N   0  0  0  0  0  0  0  0  0  0  0  0
   -1.0949  -23.5714    0.0000 C   0  0  0  0  0  0  0  0  0  0  0  0
   -1.7457  -24.9229    0.0000 N   0  0  0  0  0  0  0  0  0  0  0  0
   -1.9399  -22.3321    0.0000 O   0  0  0  0  0  0  0  0  0  0  0  0
  1  2  1  0
  2  3  1  0
  3  4  1  6
  3  5  1  0
  5  6  1  1
  6  7  1  0
  7  8  2  0
  7  9  1  0
  9 10  1  1
 10 11  1  0
 11 12  1  0
 12 13  1  0
 12 14  2  0
  9 15  1  0
 15 16  1  0
 16 17  2  0
 16 18  1  0
 18 19  1  6
 19 20  1  0
 18 21  1  0
 21 22  1  0
 22 23  2  0
 24 22  1  6
 24 25  1  0
 25 26  1  0
 26 27  1  0
 27 28  2  0
 27 29  1  0
 29 30  1  0
 30 31  2  0
 31 32  1  0
 32 33  2  0
 33 34  1  0
 33 35  1  0
 35 36  2  0
 35 37  1  0
 37 38  1  0
 38 39  1  6
 39 40  1  0
 40 41  2  0
 41 42  1  0
 42 43  2  0
 43 44  1  0
 44 45  2  0
 45 46  1  0
 46 47  2  0
 47 48  1  0
 48 49  2  0
 38 50  1  0
 50 51  2  0
 50 52  1  0
 52 53  1  0
 53 54  1  1
 54 55  1  0
 53 56  1  0
 56 57  2  0
 56 58  1  0
 58 59  1  0
 59 60  1  1
 60 61  1  0
 61 62  1  0
 62 63  1  0
 62 64  2  0
 59 65  1  0
 65 66  2  0
 65 67  1  0
 67 68  1  0
 68 69  1  6
 69 70  1  0
 70 71  2  0
 71 72  1  0
 72 73  2  0
 73 74  1  0
 74 75  2  0
 75 76  1  0
 76 77  2  0
 77 78  1  0
 78 79  2  0
 68 80  1  0
 80 81  2  0
 80 82  1  0
 82 83  1  0
 83 84  1  1
 84 85  2  0
 85 86  1  0
 86 87  2  0
 87 88  1  0
 88 89  2  0
 83 90  1  0
 90 91  2  0
 90 92  1  0
 93 92  1  6
 93 94  1  0
 94 95  1  0
 95 96  1  0
 96 97  1  0
 97 98  1  0
 98 99  1  0
 99100  2  0
 93101  1  0
101102  2  0
101103  1  0
103104  1  0
104105  1  6
105106  1  0
106107  2  0
107108  1  0
108109  2  0
109110  1  0
110111  2  0
104112  1  0
112113  2  0
112114  1  0
114115  1  0
115116  1  1
115117  1  0
117118  2  0
117119  1  0
119120  1  0
120121  1  6
121122  1  0
122123  1  0
123124  1  0
124125  1  0
125126  2  0
125127  1  0
120128  1  0
128129  2  0
128130  1  0
130131  1  0
131132  1  1
132133  1  0
133134  1  0
134135  1  0
135136  1  0
136137  2  0
136138  1  0
131139  1  0
139140  2  0
139141  1  0
  5142  1  0
142143  2  0
142144  1  0
144145  1  0
145146  1  6
146147  1  0
147148  1  0
148149  1  0
149150  1  0
150151  2  0
150152  1  0
145153  1  0
153154  2  0
153155  1  0
155156  1  0
156157  1  1
157158  1  0
158159  1  0
159160  1  0
160161  1  0
156162  1  0
162163  1  0
162164  2  0
141 24  1  0
 34 29  2  0
 49 40  1  0
 79 70  1  0
 89 84  1  0
111106  1  0
 99 31  1  0
 48 43  1  0
 78 73  1  0
M  END
>  <molecule_chembl_id>  (55) 
CHEMBL4848889

>  <canonical_smiles>  (55) 
CC[C@H](C)[C@H](NC(=O)[C@H](CCC(N)=O)NC(=O)[C@H](CO)NC(=O)[C@@H]1CNC(=O)c2cc3cc(c2)C(=O)N[C@H](Cc2ccc4ccccc4c2)C(=O)N[C@@H](CO)C(=O)N[C@@H](CCC(N)=O)C(=O)N[C@H](Cc2ccc4ccccc4c2)C(=O)N[C@@H](c2ccccc2)C(=O)N[C@@H](CCCCNC3=O)C(=O)N[C@H](Cc2ccccc2)C(=O)N[C@@H](C)C(=O)N[C@H](CCCNC(=N)N)C(=O)N[C@@H](CCCNC(=N)N)C(=O)N1)C(=O)N[C@H](CCCNC(=N)N)C(=O)N[C@@H](CCCCN)C(N)=O

>  <pchembl_value_mean>  (55) 
5.01

>  <inchi>  (55) 
InChI=1S/C110H149N31O23/c1-4-59(2)87(106(163)132-76(34-21-47-124-110(119)120)94(151)127-72(89(114)146)30-15-17-43-111)140-99(156)78(40-42-86(113)145)131-105(162)84(58-143)139-103(160)82-56-125-92(149)70-53-69-54-71(55-70)93(150)134-80(51-62-35-37-64-24-11-13-28-67(64)48-62)101(158)138-83(57-142)104(161)130-77(39-41-85(112)144)98(155)136-81(52-63-36-38-65-25-12-14-29-68(65)49-63)102(159)141-88(66-26-9-6-10-27-66)107(164)133-73(31-16-18-44-121-91(69)148)96(153)135-79(50-61-22-7-5-8-23-61)100(157)126-60(3)90(147)128-74(32-19-45-122-108(115)116)95(152)129-75(97(154)137-82)33-20-46-123-109(117)118/h5-14,22-29,35-38,48-49,53-55,59-60,72-84,87-88,142-143H,4,15-21,30-34,39-47,50-52,56-58,111H2,1-3H3,(H2,112,144)(H2,113,145)(H2,114,146)(H,121,148)(H,125,149)(H,126,157)(H,127,151)(H,128,147)(H,129,152)(H,130,161)(H,131,162)(H,132,163)(H,133,164)(H,134,150)(H,135,153)(H,136,155)(H,137,154)(H,138,158)(H,139,160)(H,140,156)(H,141,159)(H4,115,116,122)(H4,117,118,123)(H4,119,120,124)/t59-,60-,72-,73-,74+,75-,76+,77-,78-,79+,80+,81+,82-,83-,84-,87-,88-/m0/s1

$$$$

     RDKit          2D

 53 57  0  0  0  0  0  0  0  0999 V2000
   10.2274    2.8889    0.0000 C   0  0  0  0  0  0  0  0  0  0  0  0
    9.3640    4.1154    0.0000 C   0  0  0  0  0  0  0  0  0  0  0  0
    9.9945    5.4765    0.0000 C   0  0  0  0  0  0  0  0  0  0  0  0
    7.8700    3.9810    0.0000 C   0  0  0  0  0  0  0  0  0  0  0  0
    7.0066    5.2076    0.0000 C   0  0  0  0  0  0  0  0  0  0  0  0
    5.5126    5.0731    0.0000 N   0  0  0  0  0  0  0  0  0  0  0  0
    4.6492    6.2997    0.0000 C   0  0  0  0  0  0  0  0  0  0  0  0
    5.2797    7.6607    0.0000 O   0  0  0  0  0  0  0  0  0  0  0  0
    3.1552    6.1652    0.0000 C   0  0  0  0  0  0  0  0  0  0  0  0
    3.0655    4.6679    0.0000 C   0  0  0  0  0  0  0  0  0  0  0  0
    2.5385    3.2636    0.0000 O   0  0  0  0  0  0  0  0  0  0  0  0
    1.6209    2.0770    0.0000 C   0  0  0  0  0  0  0  0  0  0  0  0
    0.3943    1.2135    0.0000 C   0  0  0  0  0  0  0  0  0  0  0  0
    1.2760    0.0000    0.0000 C   0  0  0  0  0  0  0  0  0  0  0  0
    0.3943   -1.2135    0.0000 N   0  0  0  0  0  0  0  0  0  0  0  0
   -1.0323   -0.7500    0.0000 N   0  0  0  0  0  0  0  0  0  0  0  0
   -1.0323    0.7500    0.0000 N   0  0  0  0  0  0  0  0  0  0  0  0
   -2.5321    0.7276    0.0000 C   0  0  0  0  0  0  0  0  0  0  0  0
   -3.9719    1.1482    0.0000 C   0  0  0  0  0  0  0  0  0  0  0  0
   -5.2238    1.9745    0.0000 C   0  0  0  0  0  0  0  0  0  0  0  0
   -6.1765    3.1332    0.0000 C   0  0  0  0  0  0  0  0  0  0  0  0
   -6.7453    4.5211    0.0000 C   0  0  0  0  0  0  0  0  0  0  0  0
   -8.2025    4.1655    0.0000 O   0  0  0  0  0  0  0  0  0  0  0  0
   -6.8798    6.0151    0.0000 N   0  0  0  0  0  0  0  0  0  0  0  0
   -6.5679    7.4823    0.0000 C   0  0  0  0  0  0  0  0  0  0  0  0
   -5.8374    8.7924    0.0000 C   0  0  0  0  0  0  0  0  0  0  0  0
   -7.0240    9.7100    0.0000 O   0  0  0  0  0  0  0  0  0  0  0  0
   -4.7532    9.8290    0.0000 N   0  0  0  0  0  0  0  0  0  0  0  0
   -5.8059   10.8976    0.0000 C   0  0  0  0  0  0  0  0  0  0  0  0
   -5.1150   12.2290    0.0000 C   0  0  0  0  0  0  0  0  0  0  0  0
   -3.6352   11.9832    0.0000 C   0  0  0  0  0  0  0  0  0  0  0  0
   -3.4117   10.5000    0.0000 C   0  0  0  0  0  0  0  0  0  0  0  0
   -1.9319   10.7457    0.0000 C   0  0  0  0  0  0  0  0  0  0  0  0
   -1.9544   12.2455    0.0000 O   0  0  0  0  0  0  0  0  0  0  0  0
   -0.4455   10.5444    0.0000 N   0  0  0  0  0  0  0  0  0  0  0  0
    0.9155    9.9138    0.0000 C   0  0  0  0  0  0  0  0  0  0  0  0
    1.7419   11.1657    0.0000 C   0  0  0  0  0  0  0  0  0  0  0  0
    1.0709   12.5073    0.0000 C   0  0  0  0  0  0  0  0  0  0  0  0
   -0.4264   12.5970    0.0000 C   0  0  0  0  0  0  0  0  0  0  0  0
   -1.0974   13.9385    0.0000 C   0  0  0  0  0  0  0  0  0  0  0  0
   -0.2710   15.1904    0.0000 C   0  0  0  0  0  0  0  0  0  0  0  0
   -0.9420   16.5320    0.0000 C   0  0  0  0  0  0  0  0  0  0  0  0
   -0.1156   17.7838    0.0000 C   0  0  0  0  0  0  0  0  0  0  0  0
    1.3817   17.6941    0.0000 C   0  0  0  0  0  0  0  0  0  0  0  0
    2.0526   16.3525    0.0000 C   0  0  0  0  0  0  0  0  0  0  0  0
    1.2263   15.1007    0.0000 C   0  0  0  0  0  0  0  0  0  0  0  0
    1.8973   13.7591    0.0000 C   0  0  0  0  0  0  0  0  0  0  0  0
    2.0303    8.9101    0.0000 C   0  0  0  0  0  0  0  0  0  0  0  0
    3.1889    9.8628    0.0000 O   0  0  0  0  0  0  0  0  0  0  0  0
    2.7996    7.6225    0.0000 N   0  0  0  0  0  0  0  0  0  0  0  0
    7.6371    6.5686    0.0000 C   0  0  0  0  0  0  0  0  0  0  0  0
    9.1311    6.7031    0.0000 N   0  0  0  0  0  0  0  0  0  0  0  0
    6.7737    7.7952    0.0000 O   0  0  0  0  0  0  0  0  0  0  0  0
  1  2  1  0
  2  3  1  0
  2  4  1  0
  5  4  1  6
  5  6  1  0
  6  7  1  0
  7  8  2  0
  9  7  1  6
  9 10  1  0
 10 11  1  0
 11 12  1  0
 12 13  1  0
 13 14  2  0
 14 15  1  0
 15 16  2  0
 16 17  1  0
 17 18  1  0
 18 19  1  0
 19 20  1  0
 20 21  1  0
 21 22  1  0
 22 23  2  0
 22 24  1  0
 24 25  1  0
 25 26  1  0
 26 27  2  0
 26 28  1  0
 28 29  1  0
 29 30  1  0
 30 31  1  0
 32 31  1  1
 32 33  1  0
 33 34  2  0
 33 35  1  0
 35 36  1  0
 36 37  1  1
 37 38  1  0
 38 39  2  0
 39 40  1  0
 40 41  2  0
 41 42  1  0
 42 43  2  0
 43 44  1  0
 44 45  2  0
 45 46  1  0
 46 47  2  0
 36 48  1  0
 48 49  2  0
 48 50  1  0
  5 51  1  0
 51 52  1  0
 51 53  2  0
 50  9  1  0
 17 13  1  0
 32 28  1  0
 47 38  1  0
 46 41  1  0
M  END
>  <molecule_chembl_id>  (56) 
CHEMBL5092205

>  <canonical_smiles>  (56) 
CC(C)C[C@H](NC(=O)[C@@H]1COCc2cnnn2CCCCC(=O)NCC(=O)N2CCC[C@H]2C(=O)N[C@@H](Cc2ccc3ccccc3c2)C(=O)N1)C(N)=O

>  <pchembl_value_mean>  (56) 
5.02

>  <inchi>  (56) 
InChI=1S/C37H49N9O7/c1-23(2)16-28(34(38)49)41-36(51)30-22-53-21-27-19-40-44-46(27)15-6-5-11-32(47)39-20-33(48)45-14-7-10-31(45)37(52)42-29(35(50)43-30)18-24-12-13-25-8-3-4-9-26(25)17-24/h3-4,8-9,12-13,17,19,23,28-31H,5-7,10-11,14-16,18,20-22H2,1-2H3,(H2,38,49)(H,39,47)(H,41,51)(H,42,52)(H,43,50)/t28-,29-,30-,31-/m0/s1

$$$$

     RDKit          2D

 23 24  0  0  0  0  0  0  0  0999 V2000
    3.7500   -1.2990    0.0000 C   0  0  0  0  0  0  0  0  0  0  0  0
    3.0000    0.0000    0.0000 O   0  0  0  0  0  0  0  0  0  0  0  0
    1.5000    0.0000    0.0000 C   0  0  0  0  0  0  0  0  0  0  0  0
    0.7500   -1.2990    0.0000 C   0  0  0  0  0  0  0  0  0  0  0  0
   -0.7500   -1.2990    0.0000 C   0  0  0  0  0  0  0  0  0  0  0  0
   -1.5000   -2.5981    0.0000 C   0  0  0  0  0  0  0  0  0  0  0  0
   -3.0000   -2.5981    0.0000 C   0  0  0  0  0  0  0  0  0  0  0  0
   -3.7500   -3.8971    0.0000 C   0  0  0  0  0  0  0  0  0  0  0  0
   -3.0000   -5.1962    0.0000 O   0  0  0  0  0  0  0  0  0  0  0  0
   -5.2500   -3.8971    0.0000 C   0  0  0  0  0  0  0  0  0  0  0  0
   -6.0000   -2.5981    0.0000 C   0  0  0  0  0  0  0  0  0  0  0  0
   -7.5000   -2.5981    0.0000 C   0  0  0  0  0  0  0  0  0  0  0  0
   -8.2500   -3.8971    0.0000 C   0  0  0  0  0  0  0  0  0  0  0  0
   -9.7500   -3.8971    0.0000 N   0  0  0  0  0  0  0  0  0  0  0  0
   -7.5000   -5.1962    0.0000 C   0  0  0  0  0  0  0  0  0  0  0  0
   -6.0000   -5.1962    0.0000 C   0  0  0  0  0  0  0  0  0  0  0  0
   -1.5000    0.0000    0.0000 C   0  0  0  0  0  0  0  0  0  0  0  0
   -0.7500    1.2990    0.0000 C   0  0  0  0  0  0  0  0  0  0  0  0
   -1.5000    2.5981    0.0000 O   0  0  0  0  0  0  0  0  0  0  0  0
   -0.7500    3.8971    0.0000 C   0  0  0  0  0  0  0  0  0  0  0  0
    0.7500    1.2990    0.0000 C   0  0  0  0  0  0  0  0  0  0  0  0
    1.5000    2.5981    0.0000 O   0  0  0  0  0  0  0  0  0  0  0  0
    3.0000    2.5981    0.0000 C   0  0  0  0  0  0  0  0  0  0  0  0
  1  2  1  0
  2  3  1  0
  3  4  2  0
  4  5  1  0
  5  6  1  0
  6  7  2  0
  7  8  1  0
  8  9  2  0
  8 10  1  0
 10 11  2  0
 11 12  1  0
 12 13  2  0
 13 14  1  0
 13 15  1  0
 15 16  2  0
  5 17  2  0
 17 18  1  0
 18 19  1  0
 19 20  1  0
 18 21  2  0
 21 22  1  0
 22 23  1  0
 21  3  1  0
 16 10  1  0
M  END
>  <molecule_chembl_id>  (57) 
CHEMBL471655

>  <canonical_smiles>  (57) 
COc1cc(/C=C/C(=O)c2ccc(N)cc2)cc(OC)c1OC

>  <pchembl_value_mean>  (57) 
5.04

>  <inchi>  (57) 
InChI=1S/C18H19NO4/c1-21-16-10-12(11-17(22-2)18(16)23-3)4-9-15(20)13-5-7-14(19)8-6-13/h4-11H,19H2,1-3H3/b9-4+

$$$$

     RDKit          2D

 50 57  0  0  0  0  0  0  0  0999 V2000
   -3.3818  -11.6074    0.0000 C   0  0  0  0  0  0  0  0  0  0  0  0
   -2.1424  -10.7624    0.0000 C   0  0  0  0  0  0  0  0  0  0  0  0
   -0.7910  -11.4132    0.0000 C   0  0  0  0  0  0  0  0  0  0  0  0
    0.4484  -10.5682    0.0000 C   0  0  0  0  0  0  0  0  0  0  0  0
    1.7998  -11.2191    0.0000 N   0  0  0  0  0  0  0  0  0  0  0  0
    0.3363   -9.0724    0.0000 N   0  0  0  0  0  0  0  0  0  0  0  0
   -1.0152   -8.4216    0.0000 C   0  0  0  0  0  0  0  0  0  0  0  0
   -1.1273   -6.9258    0.0000 C   0  0  0  0  0  0  0  0  0  0  0  0
   -2.4787   -6.2750    0.0000 C   0  0  0  0  0  0  0  0  0  0  0  0
   -2.5908   -4.7792    0.0000 C   0  0  0  0  0  0  0  0  0  0  0  0
   -4.0307   -4.3423    0.0000 N   0  0  0  0  0  0  0  0  0  0  0  0
   -4.2543   -2.8590    0.0000 C   0  0  0  0  0  0  0  0  0  0  0  0
   -5.6506   -2.3110    0.0000 O   0  0  0  0  0  0  0  0  0  0  0  0
   -5.8742   -0.8278    0.0000 C   0  0  0  0  0  0  0  0  0  0  0  0
   -7.2705   -0.2797    0.0000 C   0  0  0  0  0  0  0  0  0  0  0  0
   -8.5346   -1.0873    0.0000 C   0  0  0  0  0  0  0  0  0  0  0  0
   -9.6932   -0.1346    0.0000 C   0  0  0  0  0  0  0  0  0  0  0  0
   -9.1452    1.2617    0.0000 C   0  0  0  0  0  0  0  0  0  0  0  0
   -7.6479    1.1720    0.0000 N   0  0  0  0  0  0  0  0  0  0  0  0
   -6.6952    2.3306    0.0000 C   0  0  0  0  0  0  0  0  0  0  0  0
   -3.0815   -1.9238    0.0000 N   0  0  0  0  0  0  0  0  0  0  0  0
   -1.6852   -2.4718    0.0000 C   0  0  0  0  0  0  0  0  0  0  0  0
   -1.3515   -3.9342    0.0000 C   0  0  0  0  0  0  0  0  0  0  0  0
   -0.0000   -4.5850    0.0000 C   0  0  0  0  0  0  0  0  0  0  0  0
    0.1121   -6.0808    0.0000 C   0  0  0  0  0  0  0  0  0  0  0  0
    1.4635   -6.7316    0.0000 Cl  0  0  0  0  0  0  0  0  0  0  0  0
    1.3515   -3.9342    0.0000 O   0  0  0  0  0  0  0  0  0  0  0  0
    1.6852   -2.4718    0.0000 C   0  0  0  0  0  0  0  0  0  0  0  0
    0.7500   -1.2990    0.0000 C   0  0  0  0  0  0  0  0  0  0  0  0
    1.5000    0.0000    0.0000 C   0  0  0  0  0  0  0  0  0  0  0  0
    0.7500    1.2990    0.0000 N   0  0  0  0  0  0  0  0  0  0  0  0
    1.5000    2.5981    0.0000 C   0  0  0  0  0  0  0  0  0  0  0  0
    0.7500    3.8971    0.0000 O   0  0  0  0  0  0  0  0  0  0  0  0
    3.0000    2.5981    0.0000 C   0  0  0  0  0  0  0  0  0  0  0  0
    3.7500    3.8971    0.0000 C   0  0  0  0  0  0  0  0  0  0  0  0
    5.2418    4.0539    0.0000 C   0  0  0  0  0  0  0  0  0  0  0  0
    5.5537    5.5211    0.0000 C   0  0  0  0  0  0  0  0  0  0  0  0
    6.0912    6.9215    0.0000 C   0  0  0  0  0  0  0  0  0  0  0  0
    7.4916    6.3839    0.0000 C   0  0  0  0  0  0  0  0  0  0  0  0
    6.9540    4.9836    0.0000 C   0  0  0  0  0  0  0  0  0  0  0  0
    4.2546    6.2711    0.0000 C   0  0  0  0  0  0  0  0  0  0  0  0
    3.1399    5.2674    0.0000 N   0  0  0  0  0  0  0  0  0  0  0  0
   -0.7500    1.2990    0.0000 C   0  0  0  0  0  0  0  0  0  0  0  0
   -1.5000    0.0000    0.0000 C   0  0  0  0  0  0  0  0  0  0  0  0
   -0.7500   -1.2990    0.0000 N   0  0  0  0  0  0  0  0  0  0  0  0
   -2.2545   -9.2666    0.0000 C   0  0  0  0  0  0  0  0  0  0  0  0
   -3.6060   -8.6157    0.0000 C   0  0  0  0  0  0  0  0  0  0  0  0
   -4.9574   -7.9649    0.0000 F   0  0  0  0  0  0  0  0  0  0  0  0
   -4.2568   -9.9672    0.0000 F   0  0  0  0  0  0  0  0  0  0  0  0
   -2.9552   -7.2643    0.0000 F   0  0  0  0  0  0  0  0  0  0  0  0
  1  2  1  0
  2  3  2  0
  3  4  1  0
  4  5  1  0
  4  6  2  0
  6  7  1  0
  7  8  1  0
  8  9  2  0
  9 10  1  0
 10 11  2  0
 11 12  1  0
 12 13  1  0
 13 14  1  0
 15 14  1  6
 15 16  1  0
 16 17  1  0
 17 18  1  0
 18 19  1  0
 19 20  1  0
 12 21  2  0
 21 22  1  0
 22 23  2  0
 23 24  1  0
 24 25  2  0
 25 26  1  0
 24 27  1  0
 27 28  1  0
 29 28  1  1
 29 30  1  0
 30 31  1  0
 31 32  1  0
 32 33  2  0
 32 34  1  0
 34 35  1  0
 35 36  1  0
 36 37  1  0
 37 38  1  0
 38 39  1  0
 39 40  1  0
 37 41  1  0
 41 42  1  0
 31 43  1  0
 43 44  1  0
 44 45  1  0
  7 46  2  0
 46 47  1  0
 47 48  1  0
 47 49  1  0
 47 50  1  0
 46  2  1  0
 25  8  1  0
 45 29  1  0
 23 10  1  0
 42 35  1  0
 19 15  1  0
 45 22  1  0
 40 37  1  0
M  END
>  <molecule_chembl_id>  (58) 
CHEMBL5434458

>  <canonical_smiles>  (58) 
Cc1cc(N)nc(-c2cc3nc(OC[C@@H]4CCCN4C)nc4c3c(c2Cl)OC[C@@H]2CN(C(=O)CC3CC5(CCC5)CN3)CCN42)c1C(F)(F)F

>  <pchembl_value_mean>  (58) 
5.05

>  <inchi>  (58) 
InChI=1S/C35H42ClF3N8O3/c1-19-11-25(40)43-30(28(19)35(37,38)39)23-13-24-27-31(29(23)36)49-17-22-15-46(26(48)12-20-14-34(18-41-20)6-4-7-34)9-10-47(22)32(27)44-33(42-24)50-16-21-5-3-8-45(21)2/h11,13,20-22,41H,3-10,12,14-18H2,1-2H3,(H2,40,43)/t20?,21-,22-/m0/s1

$$$$

     RDKit          2D

 37 41  0  0  0  0  0  0  0  0999 V2000
    3.7500   -9.0933    0.0000 C   0  0  0  0  0  0  0  0  0  0  0  0
    3.0000   -7.7942    0.0000 C   0  0  0  0  0  0  0  0  0  0  0  0
    3.7500   -6.4952    0.0000 C   0  0  0  0  0  0  0  0  0  0  0  0
    5.2500   -6.4952    0.0000 O   0  0  0  0  0  0  0  0  0  0  0  0
    3.0000   -5.1962    0.0000 N   0  0  0  0  0  0  0  0  0  0  0  0
    1.5000   -5.1962    0.0000 C   0  0  0  0  0  0  0  0  0  0  0  0
    0.7500   -3.8971    0.0000 C   0  0  0  0  0  0  0  0  0  0  0  0
    1.5000   -2.5981    0.0000 N   0  0  0  0  0  0  0  0  0  0  0  0
    0.7500   -1.2990    0.0000 C   0  0  0  0  0  0  0  0  0  0  0  0
    1.5000    0.0000    0.0000 N   0  0  0  0  0  0  0  0  0  0  0  0
    0.7500    1.2990    0.0000 N   0  0  0  0  0  0  0  0  0  0  0  0
   -0.7500    1.2990    0.0000 C   0  0  0  0  0  0  0  0  0  0  0  0
   -1.5000    2.5981    0.0000 C   0  0  0  0  0  0  0  0  0  0  0  0
   -3.0000    2.5981    0.0000 C   0  0  0  0  0  0  0  0  0  0  0  0
   -3.7500    3.8971    0.0000 C   0  0  0  0  0  0  0  0  0  0  0  0
   -3.0000    5.1962    0.0000 C   0  0  0  0  0  0  0  0  0  0  0  0
   -1.5000    5.1962    0.0000 C   0  0  0  0  0  0  0  0  0  0  0  0
   -0.7500    3.8971    0.0000 C   0  0  0  0  0  0  0  0  0  0  0  0
    0.7500    3.8971    0.0000 O   0  0  0  0  0  0  0  0  0  0  0  0
    1.5000    5.1962    0.0000 C   0  0  0  0  0  0  0  0  0  0  0  0
   -1.5000    0.0000    0.0000 C   0  0  0  0  0  0  0  0  0  0  0  0
   -3.0000    0.0000    0.0000 C   0  0  0  0  0  0  0  0  0  0  0  0
   -3.7500   -1.2990    0.0000 C   0  0  0  0  0  0  0  0  0  0  0  0
   -5.2500   -1.2990    0.0000 C   0  0  0  0  0  0  0  0  0  0  0  0
   -6.0000    0.0000    0.0000 C   0  0  0  0  0  0  0  0  0  0  0  0
   -5.2500    1.2990    0.0000 O   0  0  0  0  0  0  0  0  0  0  0  0
   -7.5000    0.0000    0.0000 C   0  0  0  0  0  0  0  0  0  0  0  0
   -8.2500   -1.2990    0.0000 C   0  0  0  0  0  0  0  0  0  0  0  0
   -7.5000   -2.5981    0.0000 C   0  0  0  0  0  0  0  0  0  0  0  0
   -6.0000   -2.5981    0.0000 C   0  0  0  0  0  0  0  0  0  0  0  0
   -5.2500   -3.8971    0.0000 F   0  0  0  0  0  0  0  0  0  0  0  0
   -3.0000   -2.5981    0.0000 C   0  0  0  0  0  0  0  0  0  0  0  0
   -3.7500   -3.8971    0.0000 Cl  0  0  0  0  0  0  0  0  0  0  0  0
   -1.5000   -2.5981    0.0000 C   0  0  0  0  0  0  0  0  0  0  0  0
   -0.7500   -1.2990    0.0000 C   0  0  0  0  0  0  0  0  0  0  0  0
    3.0000   -2.5981    0.0000 C   0  0  0  0  0  0  0  0  0  0  0  0
    3.7500   -3.8971    0.0000 C   0  0  0  0  0  0  0  0  0  0  0  0
  1  2  2  0
  2  3  1  0
  3  4  2  0
  3  5  1  0
  5  6  1  0
  6  7  1  0
  7  8  1  0
  8  9  1  0
  9 10  2  0
 10 11  1  0
 11 12  2  0
 12 13  1  0
 13 14  2  0
 14 15  1  0
 15 16  2  0
 16 17  1  0
 17 18  2  0
 18 19  1  0
 19 20  1  0
 12 21  1  0
 21 22  2  0
 22 23  1  0
 23 24  1  0
 24 25  2  0
 25 26  1  0
 25 27  1  0
 27 28  2  0
 28 29  1  0
 29 30  2  0
 30 31  1  0
 23 32  2  0
 32 33  1  0
 32 34  1  0
 34 35  2  0
  8 36  1  0
 36 37  1  0
 37  5  1  0
 35  9  1  0
 18 13  1  0
 35 21  1  0
 30 24  1  0
M  END
>  <molecule_chembl_id>  (59) 
CHEMBL4466063

>  <canonical_smiles>  (59) 
C=CC(=O)N1CCN(c2nnc(-c3ccccc3OC)c3cc(-c4c(O)cccc4F)c(Cl)cc23)CC1

>  <pchembl_value_mean>  (59) 
5.065

>  <inchi>  (59) 
InChI=1S/C28H24ClFN4O3/c1-3-25(36)33-11-13-34(14-12-33)28-19-16-21(29)20(26-22(30)8-6-9-23(26)35)15-18(19)27(31-32-28)17-7-4-5-10-24(17)37-2/h3-10,15-16,35H,1,11-14H2,2H3

$$$$

     RDKit          2D

132141  0  0  0  0  0  0  0  0999 V2000
    7.0037    5.1589    0.0000 C   0  0  0  0  0  0  0  0  0  0  0  0
    5.5364    5.4708    0.0000 C   0  0  0  0  0  0  0  0  0  0  0  0
    4.5327    4.3560    0.0000 C   0  0  0  0  0  0  0  0  0  0  0  0
    4.9963    2.9295    0.0000 C   0  0  0  0  0  0  0  0  0  0  0  0
    3.0655    4.6679    0.0000 C   0  0  0  0  0  0  0  0  0  0  0  0
    2.5385    3.2636    0.0000 N   0  0  0  0  0  0  0  0  0  0  0  0
    1.6209    2.0770    0.0000 C   0  0  0  0  0  0  0  0  0  0  0  0
    2.6575    0.9928    0.0000 O   0  0  0  0  0  0  0  0  0  0  0  0
    0.3943    1.2135    0.0000 C   0  0  0  0  0  0  0  0  0  0  0  0
    1.2760    0.0000    0.0000 C   0  0  0  0  0  0  0  0  0  0  0  0
    0.3943   -1.2135    0.0000 C   0  0  0  0  0  0  0  0  0  0  0  0
   -1.0323   -0.7500    0.0000 C   0  0  0  0  0  0  0  0  0  0  0  0
   -1.0323    0.7500    0.0000 N   0  0  0  0  0  0  0  0  0  0  0  0
   -2.5321    0.7276    0.0000 C   0  0  0  0  0  0  0  0  0  0  0  0
   -2.7335   -0.7589    0.0000 O   0  0  0  0  0  0  0  0  0  0  0  0
   -3.9719    1.1482    0.0000 C   0  0  0  0  0  0  0  0  0  0  0  0
   -4.6025   -0.2128    0.0000 C   0  0  0  0  0  0  0  0  0  0  0  0
   -6.0964   -0.3473    0.0000 C   0  0  0  0  0  0  0  0  0  0  0  0
   -6.9599    0.8793    0.0000 C   0  0  0  0  0  0  0  0  0  0  0  0
   -8.4538    0.7448    0.0000 C   0  0  0  0  0  0  0  0  0  0  0  0
   -9.0844   -0.6162    0.0000 C   0  0  0  0  0  0  0  0  0  0  0  0
  -10.5783   -0.7507    0.0000 O   0  0  0  0  0  0  0  0  0  0  0  0
   -8.2209   -1.8428    0.0000 C   0  0  0  0  0  0  0  0  0  0  0  0
   -6.7270   -1.7083    0.0000 C   0  0  0  0  0  0  0  0  0  0  0  0
   -5.2238    1.9745    0.0000 N   0  0  0  0  0  0  0  0  0  0  0  0
   -6.1765    3.1332    0.0000 C   0  0  0  0  0  0  0  0  0  0  0  0
   -7.4641    2.3638    0.0000 O   0  0  0  0  0  0  0  0  0  0  0  0
   -6.7453    4.5211    0.0000 C   0  0  0  0  0  0  0  0  0  0  0  0
   -8.2025    4.1655    0.0000 N   0  0  0  0  0  0  0  0  0  0  0  0
   -9.2391    5.2497    0.0000 C   0  0  0  0  0  0  0  0  0  0  0  0
   -8.8185    6.6895    0.0000 O   0  0  0  0  0  0  0  0  0  0  0  0
  -10.6964    4.8941    0.0000 C   0  0  0  0  0  0  0  0  0  0  0  0
  -11.7330    5.9783    0.0000 C   0  0  0  0  0  0  0  0  0  0  0  0
  -11.3123    7.4181    0.0000 C   0  0  0  0  0  0  0  0  0  0  0  0
   -9.8551    7.7737    0.0000 O   0  0  0  0  0  0  0  0  0  0  0  0
  -12.3489    8.5023    0.0000 O   0  0  0  0  0  0  0  0  0  0  0  0
  -11.1170    3.4543    0.0000 N   0  0  0  0  0  0  0  0  0  0  0  0
  -12.5742    3.0986    0.0000 C   0  0  0  0  0  0  0  0  0  0  0  0
  -12.9949    1.6588    0.0000 O   0  0  0  0  0  0  0  0  0  0  0  0
  -13.6108    4.1828    0.0000 C   0  0  0  0  0  0  0  0  0  0  0  0
  -15.0681    3.8272    0.0000 C   0  0  0  0  0  0  0  0  0  0  0  0
  -15.4887    2.3874    0.0000 C   0  0  0  0  0  0  0  0  0  0  0  0
  -16.9459    2.0318    0.0000 C   0  0  0  0  0  0  0  0  0  0  0  0
  -17.3666    0.5920    0.0000 C   0  0  0  0  0  0  0  0  0  0  0  0
  -16.3300   -0.4922    0.0000 C   0  0  0  0  0  0  0  0  0  0  0  0
  -16.7506   -1.9320    0.0000 O   0  0  0  0  0  0  0  0  0  0  0  0
  -14.8728   -0.1366    0.0000 C   0  0  0  0  0  0  0  0  0  0  0  0
  -14.4521    1.3032    0.0000 C   0  0  0  0  0  0  0  0  0  0  0  0
  -13.1902    5.6227    0.0000 N   0  0  0  0  0  0  0  0  0  0  0  0
  -14.2268    6.7068    0.0000 C   0  0  0  0  0  0  0  0  0  0  0  0
  -13.8061    8.1467    0.0000 O   0  0  0  0  0  0  0  0  0  0  0  0
  -15.6840    6.3512    0.0000 C   0  0  0  0  0  0  0  0  0  0  0  0
  -16.1047    4.9114    0.0000 C   0  0  0  0  0  0  0  0  0  0  0  0
  -17.5619    4.5558    0.0000 C   0  0  0  0  0  0  0  0  0  0  0  0
  -17.9825    3.1160    0.0000 C   0  0  0  0  0  0  0  0  0  0  0  0
  -19.4398    2.7604    0.0000 C   0  0  0  0  0  0  0  0  0  0  0  0
  -20.4764    3.8445    0.0000 C   0  0  0  0  0  0  0  0  0  0  0  0
  -20.0557    5.2844    0.0000 C   0  0  0  0  0  0  0  0  0  0  0  0
  -18.5985    5.6400    0.0000 C   0  0  0  0  0  0  0  0  0  0  0  0
  -16.7206    7.4354    0.0000 N   0  0  0  0  0  0  0  0  0  0  0  0
  -16.3000    8.8752    0.0000 C   0  0  0  0  0  0  0  0  0  0  0  0
  -14.8427    9.2308    0.0000 O   0  0  0  0  0  0  0  0  0  0  0  0
  -17.3366    9.9594    0.0000 C   0  0  0  0  0  0  0  0  0  0  0  0
  -16.9159   11.3992    0.0000 C   0  0  0  0  0  0  0  0  0  0  0  0
  -17.9525   12.4834    0.0000 C   0  0  0  0  0  0  0  0  0  0  0  0
  -19.4389   12.2821    0.0000 N   0  0  0  0  0  0  0  0  0  0  0  0
  -20.0898   13.6335    0.0000 C   0  0  0  0  0  0  0  0  0  0  0  0
  -19.0056   14.6701    0.0000 N   0  0  0  0  0  0  0  0  0  0  0  0
  -17.6847   13.9593    0.0000 C   0  0  0  0  0  0  0  0  0  0  0  0
  -18.7938    9.6038    0.0000 N   0  0  0  0  0  0  0  0  0  0  0  0
  -19.2144    8.1640    0.0000 C   0  0  0  0  0  0  0  0  0  0  0  0
  -18.1779    7.0798    0.0000 O   0  0  0  0  0  0  0  0  0  0  0  0
  -20.6717    7.8084    0.0000 C   0  0  0  0  0  0  0  0  0  0  0  0
  -21.0923    6.3686    0.0000 C   0  0  0  0  0  0  0  0  0  0  0  0
  -22.5496    6.0129    0.0000 C   0  0  0  0  0  0  0  0  0  0  0  0
  -22.9702    4.5731    0.0000 C   0  0  0  0  0  0  0  0  0  0  0  0
  -24.4274    4.2175    0.0000 C   0  0  0  0  0  0  0  0  0  0  0  0
  -25.4640    5.3017    0.0000 C   0  0  0  0  0  0  0  0  0  0  0  0
  -25.0434    6.7415    0.0000 C   0  0  0  0  0  0  0  0  0  0  0  0
  -23.5862    7.0971    0.0000 C   0  0  0  0  0  0  0  0  0  0  0  0
  -21.7083    8.8926    0.0000 N   0  0  0  0  0  0  0  0  0  0  0  0
  -21.2876   10.3324    0.0000 C   0  0  0  0  0  0  0  0  0  0  0  0
  -22.3242   11.4166    0.0000 C   0  0  0  0  0  0  0  0  0  0  0  0
  -19.8304   10.6880    0.0000 O   0  0  0  0  0  0  0  0  0  0  0  0
   -6.8798    6.0151    0.0000 C   0  0  0  0  0  0  0  0  0  0  0  0
   -6.5679    7.4823    0.0000 C   0  0  0  0  0  0  0  0  0  0  0  0
   -5.8374    8.7924    0.0000 C   0  0  0  0  0  0  0  0  0  0  0  0
   -4.7532    9.8290    0.0000 N   0  0  0  0  0  0  0  0  0  0  0  0
   -5.8059   10.8976    0.0000 N   0  0  0  0  0  0  0  0  0  0  0  0
   -5.1150   12.2290    0.0000 N   0  0  0  0  0  0  0  0  0  0  0  0
   -3.6352   11.9832    0.0000 C   0  0  0  0  0  0  0  0  0  0  0  0
   -3.4117   10.5000    0.0000 C   0  0  0  0  0  0  0  0  0  0  0  0
   -1.9319   10.7457    0.0000 C   0  0  0  0  0  0  0  0  0  0  0  0
   -0.4455   10.5444    0.0000 O   0  0  0  0  0  0  0  0  0  0  0  0
    0.9155    9.9138    0.0000 C   0  0  0  0  0  0  0  0  0  0  0  0
    2.0303    8.9101    0.0000 C   0  0  0  0  0  0  0  0  0  0  0  0
    3.1889    9.8628    0.0000 C   0  0  0  0  0  0  0  0  0  0  0  0
    2.9432   11.3425    0.0000 O   0  0  0  0  0  0  0  0  0  0  0  0
    4.5932    9.3357    0.0000 N   0  0  0  0  0  0  0  0  0  0  0  0
    5.7519   10.2884    0.0000 C   0  0  0  0  0  0  0  0  0  0  0  0
    7.1562    9.7614    0.0000 C   0  0  0  0  0  0  0  0  0  0  0  0
    8.3148   10.7140    0.0000 C   0  0  0  0  0  0  0  0  0  0  0  0
    9.7192   10.1870    0.0000 C   0  0  0  0  0  0  0  0  0  0  0  0
    8.0691   12.1938    0.0000 C   0  0  0  0  0  0  0  0  0  0  0  0
    5.5061   11.7682    0.0000 C   0  0  0  0  0  0  0  0  0  0  0  0
    4.1018   12.2952    0.0000 O   0  0  0  0  0  0  0  0  0  0  0  0
    6.6648   12.7208    0.0000 N   0  0  0  0  0  0  0  0  0  0  0  0
    6.4190   14.2006    0.0000 C   0  0  0  0  0  0  0  0  0  0  0  0
    7.5777   15.1532    0.0000 C   0  0  0  0  0  0  0  0  0  0  0  0
    8.9820   14.6262    0.0000 C   0  0  0  0  0  0  0  0  0  0  0  0
   10.1406   15.5788    0.0000 C   0  0  0  0  0  0  0  0  0  0  0  0
    9.2277   13.1464    0.0000 C   0  0  0  0  0  0  0  0  0  0  0  0
    5.0147   14.7276    0.0000 C   0  0  0  0  0  0  0  0  0  0  0  0
    3.8561   13.7750    0.0000 O   0  0  0  0  0  0  0  0  0  0  0  0
    4.7690   16.2074    0.0000 N   0  0  0  0  0  0  0  0  0  0  0  0
    5.8217   17.2759    0.0000 C   0  0  0  0  0  0  0  0  0  0  0  0
    5.1307   18.6073    0.0000 C   0  0  0  0  0  0  0  0  0  0  0  0
    3.6510   18.3616    0.0000 C   0  0  0  0  0  0  0  0  0  0  0  0
    3.4274   16.8783    0.0000 C   0  0  0  0  0  0  0  0  0  0  0  0
    2.0960   16.1874    0.0000 C   0  0  0  0  0  0  0  0  0  0  0  0
    2.0287   14.6889    0.0000 C   0  0  0  0  0  0  0  0  0  0  0  0
    0.8319   16.9949    0.0000 N   0  0  0  0  0  0  0  0  0  0  0  0
    0.7422   18.4922    0.0000 C   0  0  0  0  0  0  0  0  0  0  0  0
   -0.7095   18.8696    0.0000 C   0  0  0  0  0  0  0  0  0  0  0  0
   -1.5171   17.6055    0.0000 C   0  0  0  0  0  0  0  0  0  0  0  0
   -0.5644   16.4469    0.0000 C   0  0  0  0  0  0  0  0  0  0  0  0
   -0.9418   14.9951    0.0000 C   0  0  0  0  0  0  0  0  0  0  0  0
   -2.3877   14.5961    0.0000 N   0  0  0  0  0  0  0  0  0  0  0  0
    0.1268   13.9424    0.0000 O   0  0  0  0  0  0  0  0  0  0  0  0
    2.7996    7.6225    0.0000 N   0  0  0  0  0  0  0  0  0  0  0  0
    3.1552    6.1652    0.0000 C   0  0  0  0  0  0  0  0  0  0  0  0
    4.6492    6.2997    0.0000 O   0  0  0  0  0  0  0  0  0  0  0  0
  1  2  1  0
  2  3  1  0
  3  4  1  1
  3  5  1  0
  5  6  1  6
  6  7  1  0
  7  8  2  0
  7  9  1  0
  9 10  1  6
 10 11  1  0
 11 12  1  0
 12 13  1  0
 13 14  1  0
 14 15  2  0
 14 16  1  0
 16 17  1  6
 17 18  1  0
 18 19  2  0
 19 20  1  0
 20 21  2  0
 21 22  1  0
 21 23  1  0
 23 24  2  0
 16 25  1  0
 25 26  1  0
 26 27  2  0
 26 28  1  0
 28 29  1  1
 29 30  1  0
 30 31  2  0
 30 32  1  0
 32 33  1  1
 33 34  1  0
 34 35  2  0
 34 36  1  0
 32 37  1  0
 37 38  1  0
 38 39  2  0
 38 40  1  0
 40 41  1  6
 41 42  1  0
 42 43  2  0
 43 44  1  0
 44 45  2  0
 45 46  1  0
 45 47  1  0
 47 48  2  0
 40 49  1  0
 49 50  1  0
 50 51  2  0
 50 52  1  0
 52 53  1  6
 53 54  1  0
 54 55  2  0
 55 56  1  0
 56 57  2  0
 57 58  1  0
 58 59  2  0
 52 60  1  0
 60 61  1  0
 61 62  2  0
 61 63  1  0
 63 64  1  1
 64 65  1  0
 65 66  2  0
 66 67  1  0
 67 68  1  0
 68 69  2  0
 63 70  1  0
 70 71  1  0
 71 72  2  0
 71 73  1  0
 73 74  1  6
 74 75  1  0
 75 76  2  0
 76 77  1  0
 77 78  2  0
 78 79  1  0
 79 80  2  0
 73 81  1  0
 81 82  1  0
 82 83  1  0
 82 84  2  0
 28 85  1  0
 85 86  1  0
 86 87  1  0
 87 88  1  0
 88 89  1  0
 89 90  2  0
 90 91  1  0
 91 92  2  0
 92 93  1  0
 93 94  1  0
 94 95  1  0
 95 96  1  0
 96 97  1  1
 97 98  2  0
 97 99  1  0
 99100  1  0
100101  1  6
101102  1  0
102103  1  0
102104  1  0
100105  1  0
105106  2  0
105107  1  0
107108  1  0
108109  1  6
109110  1  0
110111  1  0
110112  1  0
108113  1  0
113114  2  0
113115  1  0
115116  1  0
116117  1  0
117118  1  0
118119  1  0
119120  1  6
120121  1  0
120122  1  0
122123  1  0
123124  1  0
124125  1  0
125126  1  0
126127  1  6
127128  1  0
127129  2  0
 96130  1  0
130131  1  0
131132  2  0
131  5  1  0
 13  9  1  0
 24 18  1  0
 48 42  1  0
 59 54  1  0
 69 65  1  0
 80 75  1  0
 92 88  1  0
119115  1  0
126122  1  0
M  END
>  <molecule_chembl_id>  (60) 
CHEMBL5079807

>  <canonical_smiles>  (60) 
CC[C@@H](C)[C@@H]1NC(=O)[C@@H]2CCCN2C(=O)[C@H](Cc2ccc(O)cc2)NC(=O)[C@@H](NC(=O)[C@H](CC(=O)O)NC(=O)[C@H](Cc2ccc(O)cc2)NC(=O)[C@H](Cc2ccccc2)NC(=O)[C@H](CC2=NCN=C2)NC(=O)[C@H](Cc2ccccc2)NC(C)=O)CCCn2nncc2COC[C@@H](C(=O)N[C@@H](CC(C)C)C(=O)N[C@@H](CC(C)C)C(=O)N2CCC[C@H]2C(C)N2CCC[C@H]2C(N)=O)NC1=O

>  <pchembl_value_mean>  (60) 
5.07

>  <inchi>  (60) 
InChI=1S/C93H126N20O19/c1-9-55(6)80-91(129)107-75(89(127)100-67(40-53(2)3)83(121)105-73(41-54(4)5)92(130)111-37-17-25-76(111)56(7)110-36-18-26-77(110)81(94)119)51-132-50-63-49-97-109-113(63)39-16-24-66(82(120)106-74(45-61-30-34-65(116)35-31-61)93(131)112-38-19-27-78(112)90(128)108-80)99-88(126)72(47-79(117)118)104-86(124)70(44-60-28-32-64(115)33-29-60)101-85(123)69(43-59-22-14-11-15-23-59)102-87(125)71(46-62-48-95-52-96-62)103-84(122)68(98-57(8)114)42-58-20-12-10-13-21-58/h10-15,20-23,28-35,48-49,53-56,66-78,80,115-116H,9,16-19,24-27,36-47,50-52H2,1-8H3,(H2,94,119)(H,98,114)(H,99,126)(H,100,127)(H,101,123)(H,102,125)(H,103,122)(H,104,124)(H,105,121)(H,106,120)(H,107,129)(H,108,128)(H,117,118)/t55-,56?,66+,67+,68+,69+,70+,71+,72+,73+,74+,75+,76+,77+,78+,80+/m1/s1

$$$$

     RDKit          2D

 24 25  0  0  0  0  0  0  0  0999 V2000
    3.7500   -1.2990    0.0000 C   0  0  0  0  0  0  0  0  0  0  0  0
    3.0000    0.0000    0.0000 O   0  0  0  0  0  0  0  0  0  0  0  0
    1.5000    0.0000    0.0000 C   0  0  0  0  0  0  0  0  0  0  0  0
    0.7500   -1.2990    0.0000 C   0  0  0  0  0  0  0  0  0  0  0  0
   -0.7500   -1.2990    0.0000 C   0  0  0  0  0  0  0  0  0  0  0  0
   -1.5000   -2.5981    0.0000 C   0  0  0  0  0  0  0  0  0  0  0  0
   -3.0000   -2.5981    0.0000 C   0  0  0  0  0  0  0  0  0  0  0  0
   -3.7500   -3.8971    0.0000 C   0  0  0  0  0  0  0  0  0  0  0  0
   -3.0000   -5.1962    0.0000 O   0  0  0  0  0  0  0  0  0  0  0  0
   -5.2500   -3.8971    0.0000 C   0  0  0  0  0  0  0  0  0  0  0  0
   -6.0000   -2.5981    0.0000 C   0  0  0  0  0  0  0  0  0  0  0  0
   -5.2500   -1.2990    0.0000 F   0  0  0  0  0  0  0  0  0  0  0  0
   -7.5000   -2.5981    0.0000 C   0  0  0  0  0  0  0  0  0  0  0  0
   -8.2500   -3.8971    0.0000 C   0  0  0  0  0  0  0  0  0  0  0  0
   -7.5000   -5.1962    0.0000 C   0  0  0  0  0  0  0  0  0  0  0  0
   -6.0000   -5.1962    0.0000 C   0  0  0  0  0  0  0  0  0  0  0  0
   -5.2500   -6.4952    0.0000 F   0  0  0  0  0  0  0  0  0  0  0  0
   -1.5000    0.0000    0.0000 C   0  0  0  0  0  0  0  0  0  0  0  0
   -0.7500    1.2990    0.0000 C   0  0  0  0  0  0  0  0  0  0  0  0
   -1.5000    2.5981    0.0000 O   0  0  0  0  0  0  0  0  0  0  0  0
   -0.7500    3.8971    0.0000 C   0  0  0  0  0  0  0  0  0  0  0  0
    0.7500    1.2990    0.0000 C   0  0  0  0  0  0  0  0  0  0  0  0
    1.5000    2.5981    0.0000 O   0  0  0  0  0  0  0  0  0  0  0  0
    3.0000    2.5981    0.0000 C   0  0  0  0  0  0  0  0  0  0  0  0
  1  2  1  0
  2  3  1  0
  3  4  2  0
  4  5  1  0
  5  6  1  0
  6  7  2  0
  7  8  1  0
  8  9  2  0
  8 10  1  0
 10 11  2  0
 11 12  1  0
 11 13  1  0
 13 14  2  0
 14 15  1  0
 15 16  2  0
 16 17  1  0
  5 18  2  0
 18 19  1  0
 19 20  1  0
 20 21  1  0
 19 22  2  0
 22 23  1  0
 23 24  1  0
 22  3  1  0
 16 10  1  0
M  END
>  <molecule_chembl_id>  (61) 
CHEMBL4643559

>  <canonical_smiles>  (61) 
COc1cc(/C=C/C(=O)c2c(F)cccc2F)cc(OC)c1OC

>  <pchembl_value_mean>  (61) 
5.09

>  <inchi>  (61) 
InChI=1S/C18H16F2O4/c1-22-15-9-11(10-16(23-2)18(15)24-3)7-8-14(21)17-12(19)5-4-6-13(17)20/h4-10H,1-3H3/b8-7+

$$$$

     RDKit          2D

 25 26  0  0  0  0  0  0  0  0999 V2000
    3.7500   -1.2990    0.0000 C   0  0  0  0  0  0  0  0  0  0  0  0
    3.0000    0.0000    0.0000 O   0  0  0  0  0  0  0  0  0  0  0  0
    1.5000    0.0000    0.0000 C   0  0  0  0  0  0  0  0  0  0  0  0
    0.7500   -1.2990    0.0000 C   0  0  0  0  0  0  0  0  0  0  0  0
   -0.7500   -1.2990    0.0000 C   0  0  0  0  0  0  0  0  0  0  0  0
   -1.5000   -2.5981    0.0000 C   0  0  0  0  0  0  0  0  0  0  0  0
   -0.7500   -3.8971    0.0000 O   0  0  0  0  0  0  0  0  0  0  0  0
   -3.0000   -2.5981    0.0000 C   0  0  0  0  0  0  0  0  0  0  0  0
   -3.7500   -3.8971    0.0000 C   0  0  0  0  0  0  0  0  0  0  0  0
   -5.2500   -3.8971    0.0000 C   0  0  0  0  0  0  0  0  0  0  0  0
   -6.0000   -2.5981    0.0000 C   0  0  0  0  0  0  0  0  0  0  0  0
   -7.5000   -2.5981    0.0000 C   0  0  0  0  0  0  0  0  0  0  0  0
   -8.2500   -3.8971    0.0000 C   0  0  0  0  0  0  0  0  0  0  0  0
   -9.7500   -3.8971    0.0000 N   0  0  0  0  0  4  0  0  0  0  0  0
  -10.5000   -5.1962    0.0000 O   0  0  0  0  0  0  0  0  0  0  0  0
  -10.5000   -2.5981    0.0000 O   0  0  0  0  0  1  0  0  0  0  0  0
   -7.5000   -5.1962    0.0000 C   0  0  0  0  0  0  0  0  0  0  0  0
   -6.0000   -5.1962    0.0000 C   0  0  0  0  0  0  0  0  0  0  0  0
   -1.5000    0.0000    0.0000 C   0  0  0  0  0  0  0  0  0  0  0  0
   -0.7500    1.2990    0.0000 C   0  0  0  0  0  0  0  0  0  0  0  0
   -1.5000    2.5981    0.0000 O   0  0  0  0  0  0  0  0  0  0  0  0
   -0.7500    3.8971    0.0000 C   0  0  0  0  0  0  0  0  0  0  0  0
    0.7500    1.2990    0.0000 C   0  0  0  0  0  0  0  0  0  0  0  0
    1.5000    2.5981    0.0000 O   0  0  0  0  0  0  0  0  0  0  0  0
    3.0000    2.5981    0.0000 C   0  0  0  0  0  0  0  0  0  0  0  0
  1  2  1  0
  2  3  1  0
  3  4  2  0
  4  5  1  0
  5  6  1  0
  6  7  2  0
  6  8  1  0
  8  9  2  0
  9 10  1  0
 10 11  2  0
 11 12  1  0
 12 13  2  0
 13 14  1  0
 14 15  2  0
 14 16  1  0
 13 17  1  0
 17 18  2  0
  5 19  2  0
 19 20  1  0
 20 21  1  0
 21 22  1  0
 20 23  2  0
 23 24  1  0
 24 25  1  0
 23  3  1  0
 18 10  1  0
M  CHG  2  14   1  16  -1
M  END
>  <molecule_chembl_id>  (62) 
CHEMBL59351

>  <canonical_smiles>  (62) 
COc1cc(C(=O)/C=C/c2ccc([N+](=O)[O-])cc2)cc(OC)c1OC

>  <pchembl_value_mean>  (62) 
5.09

>  <inchi>  (62) 
InChI=1S/C18H17NO6/c1-23-16-10-13(11-17(24-2)18(16)25-3)15(20)9-6-12-4-7-14(8-5-12)19(21)22/h4-11H,1-3H3/b9-6+

$$$$

     RDKit          2D

 46 51  0  0  0  0  0  0  0  0999 V2000
   -3.3818  -11.6074    0.0000 C   0  0  0  0  0  0  0  0  0  0  0  0
   -2.1424  -10.7624    0.0000 C   0  0  0  0  0  0  0  0  0  0  0  0
   -0.7910  -11.4132    0.0000 C   0  0  0  0  0  0  0  0  0  0  0  0
    0.4484  -10.5682    0.0000 C   0  0  0  0  0  0  0  0  0  0  0  0
    1.7998  -11.2191    0.0000 N   0  0  0  0  0  0  0  0  0  0  0  0
    0.3363   -9.0724    0.0000 N   0  0  0  0  0  0  0  0  0  0  0  0
   -1.0152   -8.4216    0.0000 C   0  0  0  0  0  0  0  0  0  0  0  0
   -1.1273   -6.9258    0.0000 C   0  0  0  0  0  0  0  0  0  0  0  0
   -2.4787   -6.2750    0.0000 C   0  0  0  0  0  0  0  0  0  0  0  0
   -2.5908   -4.7792    0.0000 C   0  0  0  0  0  0  0  0  0  0  0  0
   -4.0307   -4.3423    0.0000 N   0  0  0  0  0  0  0  0  0  0  0  0
   -4.2543   -2.8590    0.0000 C   0  0  0  0  0  0  0  0  0  0  0  0
   -5.6506   -2.3110    0.0000 O   0  0  0  0  0  0  0  0  0  0  0  0
   -5.8742   -0.8278    0.0000 C   0  0  0  0  0  0  0  0  0  0  0  0
   -7.2705   -0.2797    0.0000 C   0  0  0  0  0  0  0  0  0  0  0  0
   -8.5346   -1.0873    0.0000 C   0  0  0  0  0  0  0  0  0  0  0  0
   -9.6932   -0.1346    0.0000 C   0  0  0  0  0  0  0  0  0  0  0  0
   -9.1452    1.2617    0.0000 C   0  0  0  0  0  0  0  0  0  0  0  0
   -7.6479    1.1720    0.0000 N   0  0  0  0  0  0  0  0  0  0  0  0
   -6.6952    2.3306    0.0000 C   0  0  0  0  0  0  0  0  0  0  0  0
   -3.0815   -1.9238    0.0000 N   0  0  0  0  0  0  0  0  0  0  0  0
   -1.6852   -2.4718    0.0000 C   0  0  0  0  0  0  0  0  0  0  0  0
   -1.3515   -3.9342    0.0000 C   0  0  0  0  0  0  0  0  0  0  0  0
   -0.0000   -4.5850    0.0000 C   0  0  0  0  0  0  0  0  0  0  0  0
    0.1121   -6.0808    0.0000 C   0  0  0  0  0  0  0  0  0  0  0  0
    1.4635   -6.7316    0.0000 Cl  0  0  0  0  0  0  0  0  0  0  0  0
    1.3515   -3.9342    0.0000 O   0  0  0  0  0  0  0  0  0  0  0  0
    1.6852   -2.4718    0.0000 C   0  0  0  0  0  0  0  0  0  0  0  0
    0.7500   -1.2990    0.0000 C   0  0  0  0  0  0  0  0  0  0  0  0
    1.5000    0.0000    0.0000 C   0  0  0  0  0  0  0  0  0  0  0  0
    0.7500    1.2990    0.0000 N   0  0  0  0  0  0  0  0  0  0  0  0
    1.5000    2.5981    0.0000 C   0  0  0  0  0  0  0  0  0  0  0  0
    0.7500    3.8971    0.0000 O   0  0  0  0  0  0  0  0  0  0  0  0
    3.0000    2.5981    0.0000 C   0  0  0  0  0  0  0  0  0  0  0  0
    3.7500    3.8971    0.0000 C   0  0  0  0  0  0  0  0  0  0  0  0
    3.7500    1.2990    0.0000 N   0  0  0  0  0  0  0  0  0  0  0  0
    5.2500    1.2990    0.0000 C   0  0  0  0  0  0  0  0  0  0  0  0
    3.0000   -0.0000    0.0000 C   0  0  0  0  0  0  0  0  0  0  0  0
   -0.7500    1.2990    0.0000 C   0  0  0  0  0  0  0  0  0  0  0  0
   -1.5000    0.0000    0.0000 C   0  0  0  0  0  0  0  0  0  0  0  0
   -0.7500   -1.2990    0.0000 N   0  0  0  0  0  0  0  0  0  0  0  0
   -2.2545   -9.2666    0.0000 C   0  0  0  0  0  0  0  0  0  0  0  0
   -3.6060   -8.6157    0.0000 C   0  0  0  0  0  0  0  0  0  0  0  0
   -4.9574   -7.9649    0.0000 F   0  0  0  0  0  0  0  0  0  0  0  0
   -4.2568   -9.9672    0.0000 F   0  0  0  0  0  0  0  0  0  0  0  0
   -2.9552   -7.2643    0.0000 F   0  0  0  0  0  0  0  0  0  0  0  0
  1  2  1  0
  2  3  2  0
  3  4  1  0
  4  5  1  0
  4  6  2  0
  6  7  1  0
  7  8  1  0
  8  9  2  0
  9 10  1  0
 10 11  2  0
 11 12  1  0
 12 13  1  0
 13 14  1  0
 15 14  1  6
 15 16  1  0
 16 17  1  0
 17 18  1  0
 18 19  1  0
 19 20  1  0
 12 21  2  0
 21 22  1  0
 22 23  2  0
 23 24  1  0
 24 25  2  0
 25 26  1  0
 24 27  1  0
 27 28  1  0
 29 28  1  1
 29 30  1  0
 30 31  1  0
 31 32  1  0
 32 33  2  0
 32 34  1  0
 34 35  1  6
 34 36  1  0
 36 37  1  0
 36 38  1  0
 31 39  1  0
 39 40  1  0
 40 41  1  0
  7 42  2  0
 42 43  1  0
 43 44  1  0
 43 45  1  0
 43 46  1  0
 42  2  1  0
 25  8  1  0
 41 29  1  0
 23 10  1  0
 19 15  1  0
 41 22  1  0
M  END
>  <molecule_chembl_id>  (63) 
CHEMBL5438399

>  <canonical_smiles>  (63) 
Cc1cc(N)nc(-c2cc3nc(OC[C@@H]4CCCN4C)nc4c3c(c2Cl)OC[C@@H]2CN(C(=O)[C@H](C)N(C)C)CCN42)c1C(F)(F)F

>  <pchembl_value_mean>  (63) 
5.09

>  <inchi>  (63) 
InChI=1S/C31H38ClF3N8O3/c1-16-11-22(36)38-26(24(16)31(33,34)35)20-12-21-23-27(25(20)32)45-15-19-13-42(29(44)17(2)40(3)4)9-10-43(19)28(23)39-30(37-21)46-14-18-7-6-8-41(18)5/h11-12,17-19H,6-10,13-15H2,1-5H3,(H2,36,38)/t17-,18-,19-/m0/s1

$$$$

     RDKit          2D

158168  0  0  0  0  0  0  0  0999 V2000
   15.4792   -0.1915    0.0000 C   0  0  0  0  0  0  0  0  0  0  0  0
   13.9792   -0.1915    0.0000 C   0  0  0  0  0  0  0  0  0  0  0  0
   13.8112   -1.6821    0.0000 N   0  0  0  0  0  0  0  0  0  0  0  0
   13.3158   -3.0979    0.0000 C   0  0  0  0  0  0  0  0  0  0  0  0
   14.6672   -3.7487    0.0000 O   0  0  0  0  0  0  0  0  0  0  0  0
   12.5177   -4.3680    0.0000 C   0  0  0  0  0  0  0  0  0  0  0  0
   13.6905   -5.3032    0.0000 C   0  0  0  0  0  0  0  0  0  0  0  0
   13.4669   -6.7865    0.0000 C   0  0  0  0  0  0  0  0  0  0  0  0
   12.0706   -7.3345    0.0000 C   0  0  0  0  0  0  0  0  0  0  0  0
   11.8471   -8.8177    0.0000 C   0  0  0  0  0  0  0  0  0  0  0  0
   13.0198   -9.7530    0.0000 C   0  0  0  0  0  0  0  0  0  0  0  0
   14.4161   -9.2050    0.0000 C   0  0  0  0  0  0  0  0  0  0  0  0
   14.6397   -7.7217    0.0000 C   0  0  0  0  0  0  0  0  0  0  0  0
   11.4571   -5.4287    0.0000 N   0  0  0  0  0  0  0  0  0  0  0  0
   10.1870   -6.2267    0.0000 C   0  0  0  0  0  0  0  0  0  0  0  0
   10.8378   -7.5782    0.0000 O   0  0  0  0  0  0  0  0  0  0  0  0
    8.7712   -6.7221    0.0000 C   0  0  0  0  0  0  0  0  0  0  0  0
    7.2806   -6.8901    0.0000 C   0  0  0  0  0  0  0  0  0  0  0  0
    5.7900   -6.7221    0.0000 C   0  0  0  0  0  0  0  0  0  0  0  0
    4.3742   -6.2267    0.0000 C   0  0  0  0  0  0  0  0  0  0  0  0
    3.1041   -5.4287    0.0000 C   0  0  0  0  0  0  0  0  0  0  0  0
    2.0435   -4.3680    0.0000 N   0  0  0  0  0  0  0  0  0  0  0  0
    1.2454   -3.0979    0.0000 C   0  0  0  0  0  0  0  0  0  0  0  0
   -0.1060   -3.7487    0.0000 O   0  0  0  0  0  0  0  0  0  0  0  0
    0.7500   -1.2990    0.0000 C   0  0  0  0  0  0  0  0  0  0  0  0
    1.5000    0.0000    0.0000 C   0  0  0  0  0  0  0  0  0  0  0  0
    0.7500    1.2990    0.0000 C   0  0  0  0  0  0  0  0  0  0  0  0
   -0.7500    1.2990    0.0000 C   0  0  0  0  0  0  0  0  0  0  0  0
   -1.5000    0.0000    0.0000 C   0  0  0  0  0  0  0  0  0  0  0  0
   -0.7500   -1.2990    0.0000 C   0  0  0  0  0  0  0  0  0  0  0  0
   -2.3002   -1.3623    0.0000 C   0  0  0  0  0  0  0  0  0  0  0  0
   -3.7181    0.3198    0.0000 O   0  0  0  0  0  0  0  0  0  0  0  0
   -3.2158   -2.3372    0.0000 N   0  0  0  0  0  0  0  0  0  0  0  0
   -3.8819   -3.4970    0.0000 C   0  0  0  0  0  0  0  0  0  0  0  0
   -5.9040   -2.6302    0.0000 C   0  0  0  0  0  0  0  0  0  0  0  0
   -6.0815   -1.1408    0.0000 C   0  0  0  0  0  0  0  0  0  0  0  0
   -4.8803   -0.2423    0.0000 C   0  0  0  0  0  0  0  0  0  0  0  0
   -5.0578    1.2471    0.0000 C   0  0  0  0  0  0  0  0  0  0  0  0
   -6.4365    1.8381    0.0000 C   0  0  0  0  0  0  0  0  0  0  0  0
   -6.6140    3.3276    0.0000 C   0  0  0  0  0  0  0  0  0  0  0  0
   -7.9927    3.9186    0.0000 C   0  0  0  0  0  0  0  0  0  0  0  0
   -9.1939    3.0201    0.0000 C   0  0  0  0  0  0  0  0  0  0  0  0
   -9.0163    1.5307    0.0000 C   0  0  0  0  0  0  0  0  0  0  0  0
   -7.6377    0.9397    0.0000 C   0  0  0  0  0  0  0  0  0  0  0  0
   -7.4602   -0.5498    0.0000 C   0  0  0  0  0  0  0  0  0  0  0  0
   -4.2626   -4.7792    0.0000 C   0  0  0  0  0  0  0  0  0  0  0  0
   -6.4300   -4.4021    0.0000 O   0  0  0  0  0  0  0  0  0  0  0  0
   -4.3373   -6.1146    0.0000 N   0  0  0  0  0  0  0  0  0  0  0  0
   -4.1021   -7.4312    0.0000 C   0  0  0  0  0  0  0  0  0  0  0  0
   -6.2082   -8.0669    0.0000 C   0  0  0  0  0  0  0  0  0  0  0  0
   -7.3016   -7.0400    0.0000 O   0  0  0  0  0  0  0  0  0  0  0  0
   -3.5696   -8.6581    0.0000 C   0  0  0  0  0  0  0  0  0  0  0  0
   -5.4723   -9.7624    0.0000 O   0  0  0  0  0  0  0  0  0  0  0  0
   -2.7685   -9.7291    0.0000 N   0  0  0  0  0  0  0  0  0  0  0  0
   -1.7420  -10.5864    0.0000 C   0  0  0  0  0  0  0  0  0  0  0  0
   -2.9467  -12.4273    0.0000 C   0  0  0  0  0  0  0  0  0  0  0  0
   -4.4444  -12.3434    0.0000 C   0  0  0  0  0  0  0  0  0  0  0  0
   -5.2658  -13.5985    0.0000 C   0  0  0  0  0  0  0  0  0  0  0  0
   -6.7634  -13.5147    0.0000 N   0  0  0  0  0  0  0  0  0  0  0  0
   -4.5895  -14.9375    0.0000 O   0  0  0  0  0  0  0  0  0  0  0  0
   -0.5454  -11.1840    0.0000 C   0  0  0  0  0  0  0  0  0  0  0  0
   -1.2931  -13.2530    0.0000 O   0  0  0  0  0  0  0  0  0  0  0  0
    0.7567  -11.4895    0.0000 N   0  0  0  0  0  0  0  0  0  0  0  0
    2.0942  -11.4864    0.0000 C   0  0  0  0  0  0  0  0  0  0  0  0
    2.3546  -13.6710    0.0000 C   0  0  0  0  0  0  0  0  0  0  0  0
    1.1534  -14.5694    0.0000 C   0  0  0  0  0  0  0  0  0  0  0  0
   -0.2253  -13.9785    0.0000 C   0  0  0  0  0  0  0  0  0  0  0  0
   -1.4264  -14.8769    0.0000 C   0  0  0  0  0  0  0  0  0  0  0  0
   -1.2489  -16.3664    0.0000 C   0  0  0  0  0  0  0  0  0  0  0  0
   -2.4501  -17.2648    0.0000 C   0  0  0  0  0  0  0  0  0  0  0  0
   -2.2725  -18.7543    0.0000 C   0  0  0  0  0  0  0  0  0  0  0  0
   -0.8939  -19.3453    0.0000 C   0  0  0  0  0  0  0  0  0  0  0  0
    0.3073  -18.4468    0.0000 C   0  0  0  0  0  0  0  0  0  0  0  0
    0.1298  -16.9574    0.0000 C   0  0  0  0  0  0  0  0  0  0  0  0
    1.3309  -16.0589    0.0000 C   0  0  0  0  0  0  0  0  0  0  0  0
    3.3949  -11.1751    0.0000 C   0  0  0  0  0  0  0  0  0  0  0  0
    4.1520  -13.2407    0.0000 O   0  0  0  0  0  0  0  0  0  0  0  0
    4.5887  -10.5721    0.0000 N   0  0  0  0  0  0  0  0  0  0  0  0
    5.6114   -9.7101    0.0000 C   0  0  0  0  0  0  0  0  0  0  0  0
    7.2150  -11.2162    0.0000 C   0  0  0  0  0  0  0  0  0  0  0  0
    6.8724  -12.6765    0.0000 C   0  0  0  0  0  0  0  0  0  0  0  0
    7.9658  -13.7034    0.0000 C   0  0  0  0  0  0  0  0  0  0  0  0
    9.4018  -13.2699    0.0000 C   0  0  0  0  0  0  0  0  0  0  0  0
    9.7444  -11.8096    0.0000 C   0  0  0  0  0  0  0  0  0  0  0  0
    8.6510  -10.7827    0.0000 C   0  0  0  0  0  0  0  0  0  0  0  0
    6.4076   -8.6354    0.0000 C   0  0  0  0  0  0  0  0  0  0  0  0
    8.3154   -9.7311    0.0000 O   0  0  0  0  0  0  0  0  0  0  0  0
    8.1358   -8.0625    0.0000 N   0  0  0  0  0  0  0  0  0  0  0  0
    1.2454    2.7149    0.0000 C   0  0  0  0  0  0  0  0  0  0  0  0
   -0.1060    3.3657    0.0000 O   0  0  0  0  0  0  0  0  0  0  0  0
    2.0435    3.9849    0.0000 N   0  0  0  0  0  0  0  0  0  0  0  0
    3.1041    5.0456    0.0000 C   0  0  0  0  0  0  0  0  0  0  0  0
    4.3742    5.8437    0.0000 C   0  0  0  0  0  0  0  0  0  0  0  0
    3.7234    7.1951    0.0000 C   0  0  0  0  0  0  0  0  0  0  0  0
    2.2276    7.3072    0.0000 O   0  0  0  0  0  0  0  0  0  0  0  0
    4.5684    8.4345    0.0000 N   0  0  0  0  0  0  0  0  0  0  0  0
    3.9175    9.7859    0.0000 C   0  0  0  0  0  0  0  0  0  0  0  0
    2.4217    9.8980    0.0000 C   0  0  0  0  0  0  0  0  0  0  0  0
    1.5768    8.6587    0.0000 O   0  0  0  0  0  0  0  0  0  0  0  0
    1.7709   11.2495    0.0000 N   0  0  0  0  0  0  0  0  0  0  0  0
    0.2751   11.3616    0.0000 C   0  0  0  0  0  0  0  0  0  0  0  0
   -0.3757   12.7130    0.0000 C   0  0  0  0  0  0  0  0  0  0  0  0
   -1.1326   12.9632    0.0000 O   0  0  0  0  0  0  0  0  0  0  0  0
   -0.5699   10.1222    0.0000 C   0  0  0  0  0  0  0  0  0  0  0  0
    0.0810    8.7708    0.0000 O   0  0  0  0  0  0  0  0  0  0  0  0
   -2.0657   10.2343    0.0000 N   0  0  0  0  0  0  0  0  0  0  0  0
   -3.0356    9.0901    0.0000 C   0  0  0  0  0  0  0  0  0  0  0  0
   -4.4235    9.6589    0.0000 C   0  0  0  0  0  0  0  0  0  0  0  0
   -4.3114   11.1547    0.0000 C   0  0  0  0  0  0  0  0  0  0  0  0
   -2.8542   11.5103    0.0000 C   0  0  0  0  0  0  0  0  0  0  0  0
   -2.2854   12.8983    0.0000 C   0  0  0  0  0  0  0  0  0  0  0  0
   -1.2695   13.3029    0.0000 O   0  0  0  0  0  0  0  0  0  0  0  0
   -3.2030   14.0849    0.0000 N   0  0  0  0  0  0  0  0  0  0  0  0
   -2.6341   15.4728    0.0000 C   0  0  0  0  0  0  0  0  0  0  0  0
   -3.5517   16.6594    0.0000 C   0  0  0  0  0  0  0  0  0  0  0  0
   -5.0381   16.4581    0.0000 C   0  0  0  0  0  0  0  0  0  0  0  0
   -5.6070   15.0701    0.0000 C   0  0  0  0  0  0  0  0  0  0  0  0
   -4.6894   13.8835    0.0000 C   0  0  0  0  0  0  0  0  0  0  0  0
   -5.2582   12.4956    0.0000 C   0  0  0  0  0  0  0  0  0  0  0  0
   -4.6550   11.1222    0.0000 O   0  0  0  0  0  0  0  0  0  0  0  0
   -6.7446   12.2942    0.0000 N   0  0  0  0  0  0  0  0  0  0  0  0
   -7.3135   10.9063    0.0000 C   0  0  0  0  0  0  0  0  0  0  0  0
   -8.7999   10.7049    0.0000 C   0  0  0  0  0  0  0  0  0  0  0  0
   -9.3687    9.3170    0.0000 C   0  0  0  0  0  0  0  0  0  0  0  0
  -10.8552    9.1156    0.0000 C   0  0  0  0  0  0  0  0  0  0  0  0
  -11.4240    7.7277    0.0000 C   0  0  0  0  0  0  0  0  0  0  0  0
  -12.9104    7.5263    0.0000 N   0  0  0  0  0  0  0  0  0  0  0  0
   -6.3959    9.7197    0.0000 C   0  0  0  0  0  0  0  0  0  0  0  0
   -6.9647    8.3317    0.0000 N   0  0  0  0  0  0  0  0  0  0  0  0
   -4.9049    9.5554    0.0000 O   0  0  0  0  0  0  0  0  0  0  0  0
    4.7625   11.0253    0.0000 C   0  0  0  0  0  0  0  0  0  0  0  0
    4.1117   12.3767    0.0000 C   0  0  0  0  0  0  0  0  0  0  0  0
    6.2583   10.9132    0.0000 O   0  0  0  0  0  0  0  0  0  0  0  0
    5.7900    6.3391    0.0000 N   0  0  0  0  0  0  0  0  0  0  0  0
    7.2806    6.5070    0.0000 C   0  0  0  0  0  0  0  0  0  0  0  0
    7.2806    8.0070    0.0000 O   0  0  0  0  0  0  0  0  0  0  0  0
    8.7712    6.3391    0.0000 C   0  0  0  0  0  0  0  0  0  0  0  0
    9.1050    7.8015    0.0000 C   0  0  0  0  0  0  0  0  0  0  0  0
   10.5383    8.2436    0.0000 C   0  0  0  0  0  0  0  0  0  0  0  0
   10.8721    9.7060    0.0000 C   0  0  0  0  0  0  0  0  0  0  0  0
   12.3055   10.1481    0.0000 N   0  0  0  0  0  0  0  0  0  0  0  0
   12.6392   11.6105    0.0000 C   0  0  0  0  0  0  0  0  0  0  0  0
   11.5397   12.6308    0.0000 N   0  0  0  0  0  0  0  0  0  0  0  0
   14.0726   12.0527    0.0000 N   0  0  0  0  0  0  0  0  0  0  0  0
   10.1870    5.8437    0.0000 N   0  0  0  0  0  0  0  0  0  0  0  0
   11.4571    5.0456    0.0000 C   0  0  0  0  0  0  0  0  0  0  0  0
   12.3923    6.2184    0.0000 O   0  0  0  0  0  0  0  0  0  0  0  0
   12.5177    3.9849    0.0000 C   0  0  0  0  0  0  0  0  0  0  0  0
   13.6905    4.9202    0.0000 C   0  0  0  0  0  0  0  0  0  0  0  0
   15.0868    4.3722    0.0000 C   0  0  0  0  0  0  0  0  0  0  0  0
   16.2596    5.3074    0.0000 C   0  0  0  0  0  0  0  0  0  0  0  0
   17.6559    4.7594    0.0000 N   0  0  0  0  0  0  0  0  0  0  0  0
   18.8286    5.6946    0.0000 C   0  0  0  0  0  0  0  0  0  0  0  0
   18.6050    7.1779    0.0000 N   0  0  0  0  0  0  0  0  0  0  0  0
   20.2249    5.1466    0.0000 N   0  0  0  0  0  0  0  0  0  0  0  0
   13.3158    2.7149    0.0000 N   0  0  0  0  0  0  0  0  0  0  0  0
   13.8112    1.2990    0.0000 C   0  0  0  0  0  0  0  0  0  0  0  0
   15.2736    1.6328    0.0000 O   0  0  0  0  0  0  0  0  0  0  0  0
  2  1  1  6
  2  3  1  0
  3  4  1  0
  4  5  2  0
  4  6  1  0
  6  7  1  1
  7  8  1  0
  8  9  2  0
  9 10  1  0
 10 11  2  0
 11 12  1  0
 12 13  2  0
  6 14  1  0
 14 15  1  0
 15 16  2  0
 15 17  1  0
 17 18  1  0
 18 19  1  0
 19 20  1  0
 20 21  1  0
 21 22  1  0
 22 23  1  0
 23 24  2  0
 23 25  1  0
 25 26  1  0
 26 27  2  0
 27 28  1  0
 28 29  2  0
 29 30  1  0
 29 31  1  0
 31 32  2  0
 31 33  1  0
 33 34  1  0
 34 35  1  1
 35 36  1  0
 36 37  2  0
 37 38  1  0
 38 39  2  0
 39 40  1  0
 40 41  2  0
 41 42  1  0
 42 43  2  0
 43 44  1  0
 44 45  2  0
 34 46  1  0
 46 47  2  0
 46 48  1  0
 48 49  1  0
 49 50  1  6
 50 51  1  0
 49 52  1  0
 52 53  2  0
 52 54  1  0
 54 55  1  0
 55 56  1  6
 56 57  1  0
 57 58  1  0
 58 59  1  0
 58 60  2  0
 55 61  1  0
 61 62  2  0
 61 63  1  0
 63 64  1  0
 64 65  1  1
 65 66  1  0
 66 67  2  0
 67 68  1  0
 68 69  2  0
 69 70  1  0
 70 71  2  0
 71 72  1  0
 72 73  2  0
 73 74  1  0
 74 75  2  0
 64 76  1  0
 76 77  2  0
 76 78  1  0
 78 79  1  0
 79 80  1  6
 80 81  2  0
 81 82  1  0
 82 83  2  0
 83 84  1  0
 84 85  2  0
 79 86  1  0
 86 87  2  0
 86 88  1  0
 27 89  1  0
 89 90  2  0
 89 91  1  0
 91 92  1  0
 92 93  1  0
 93 94  1  1
 94 95  2  0
 94 96  1  0
 97 96  1  1
 97 98  1  0
 98 99  2  0
 98100  1  0
100101  1  0
101102  1  6
102103  1  0
101104  1  0
104105  2  0
104106  1  0
106107  1  0
107108  1  0
108109  1  0
109110  1  0
110111  1  6
111112  2  0
111113  1  0
113114  1  0
114115  1  0
115116  1  0
116117  1  0
117118  1  0
118119  1  1
119120  2  0
119121  1  0
121122  1  0
122123  1  6
123124  1  0
124125  1  0
125126  1  0
126127  1  0
122128  1  0
128129  1  0
128130  2  0
 97131  1  0
131132  1  6
131133  1  0
 93134  1  0
134135  1  0
135136  2  0
135137  1  0
137138  1  6
138139  1  0
139140  1  0
140141  1  0
141142  1  0
142143  2  0
142144  1  0
137145  1  0
145146  1  0
146147  2  0
146148  1  0
148149  1  1
149150  1  0
150151  1  0
151152  1  0
152153  1  0
153154  2  0
153155  1  0
148156  1  0
156157  1  0
157158  2  0
157  2  1  0
 13  8  1  0
 17 88  1  1
110106  1  0
118113  1  0
 30 25  2  0
 45 36  1  0
 75 66  1  0
 85 80  1  0
 44 39  1  0
 74 69  1  0
M  END
>  <molecule_chembl_id>  (64) 
CHEMBL4856925

>  <canonical_smiles>  (64) 
C[C@@H]1NC(=O)[C@@H](Cc2ccccc2)NC(=O)[C@@H]2CCCCNC(=O)c3cc(cc(c3)C(=O)N[C@H](Cc3ccc4ccccc4c3)C(=O)N[C@@H](CO)C(=O)N[C@@H](CCC(N)=O)C(=O)N[C@H](Cc3ccc4ccccc4c3)C(=O)N[C@@H](c3ccccc3)C(=O)N2)C(=O)NC[C@@H](C(=O)N[C@@H](C(=O)N[C@@H](CO)C(=O)N2CCC[C@@H]2C(=O)N2CCCC[C@@H]2C(=O)N[C@@H](CCCCN)C(N)=O)[C@H](C)O)NC(=O)[C@H](CCCNC(=N)N)NC(=O)[C@@H](CCCNC(=N)N)NC1=O

>  <pchembl_value_mean>  (64) 
5.1

>  <inchi>  (64) 
InChI=1S/C108H141N27O23/c1-59-89(141)122-74(32-19-44-117-107(112)113)93(145)123-75(33-20-45-118-108(114)115)95(147)129-80(100(152)132-86(60(2)138)103(155)131-82(58-137)105(157)135-47-21-35-84(135)106(158)134-46-18-15-34-83(134)102(154)121-72(88(111)140)30-13-16-42-109)56-119-91(143)70-53-69-54-71(55-70)92(144)126-78(51-62-36-38-64-24-9-11-28-67(64)48-62)98(150)130-81(57-136)101(153)124-76(40-41-85(110)139)96(148)128-79(52-63-37-39-65-25-10-12-29-68(65)49-63)99(151)133-87(66-26-7-4-8-27-66)104(156)125-73(31-14-17-43-116-90(69)142)94(146)127-77(97(149)120-59)50-61-22-5-3-6-23-61/h3-12,22-29,36-39,48-49,53-55,59-60,72-84,86-87,136-138H,13-21,30-35,40-47,50-52,56-58,109H2,1-2H3,(H2,110,139)(H2,111,140)(H,116,142)(H,119,143)(H,120,149)(H,121,154)(H,122,141)(H,123,145)(H,124,153)(H,125,156)(H,126,144)(H,127,146)(H,128,148)(H,129,147)(H,130,150)(H,131,155)(H,132,152)(H,133,151)(H4,112,113,117)(H4,114,115,118)/t59-,60-,72-,73-,74+,75-,76-,77+,78+,79+,80-,81-,82-,83+,84+,86+,87-/m0/s1

$$$$

     RDKit          2D

 54 58  0  0  0  0  0  0  0  0999 V2000
  -12.3915   -6.9517    0.0000 C   0  0  0  0  0  0  0  0  0  0  0  0
  -11.2187   -7.8870    0.0000 C   0  0  0  0  0  0  0  0  0  0  0  0
  -11.4423   -9.3702    0.0000 C   0  0  0  0  0  0  0  0  0  0  0  0
   -9.8224   -7.3390    0.0000 C   0  0  0  0  0  0  0  0  0  0  0  0
   -8.6496   -8.2742    0.0000 C   0  0  0  0  0  0  0  0  0  0  0  0
   -7.2533   -7.7262    0.0000 N   0  0  0  0  0  0  0  0  0  0  0  0
   -6.0806   -8.6614    0.0000 C   0  0  0  0  0  0  0  0  0  0  0  0
   -6.3042  -10.1447    0.0000 O   0  0  0  0  0  0  0  0  0  0  0  0
   -4.6843   -8.1134    0.0000 C   0  0  0  0  0  0  0  0  0  0  0  0
   -3.9343   -9.4124    0.0000 C   0  0  0  0  0  0  0  0  0  0  0  0
   -2.8347  -10.4327    0.0000 O   0  0  0  0  0  0  0  0  0  0  0  0
   -1.4832  -11.0835    0.0000 C   0  0  0  0  0  0  0  0  0  0  0  0
    0.0000  -11.3071    0.0000 C   0  0  0  0  0  0  0  0  0  0  0  0
   -0.2457  -12.7868    0.0000 C   0  0  0  0  0  0  0  0  0  0  0  0
    1.0857  -13.4778    0.0000 N   0  0  0  0  0  0  0  0  0  0  0  0
    2.1542  -12.4251    0.0000 N   0  0  0  0  0  0  0  0  0  0  0  0
    1.4832  -11.0835    0.0000 N   0  0  0  0  0  0  0  0  0  0  0  0
    2.8347  -10.4327    0.0000 C   0  0  0  0  0  0  0  0  0  0  0  0
    3.9343   -9.4124    0.0000 C   0  0  0  0  0  0  0  0  0  0  0  0
    4.6843   -8.1134    0.0000 C   0  0  0  0  0  0  0  0  0  0  0  0
    5.0181   -6.6510    0.0000 C   0  0  0  0  0  0  0  0  0  0  0  0
    4.9060   -5.1552    0.0000 C   0  0  0  0  0  0  0  0  0  0  0  0
    6.3684   -4.8214    0.0000 O   0  0  0  0  0  0  0  0  0  0  0  0
    4.3580   -3.7589    0.0000 N   0  0  0  0  0  0  0  0  0  0  0  0
    3.4227   -2.5862    0.0000 C   0  0  0  0  0  0  0  0  0  0  0  0
    2.1834   -1.7412    0.0000 C   0  0  0  0  0  0  0  0  0  0  0  0
    2.8342   -0.3897    0.0000 O   0  0  0  0  0  0  0  0  0  0  0  0
    0.7500   -1.2990    0.0000 N   0  0  0  0  0  0  0  0  0  0  0  0
    1.5000    0.0000    0.0000 C   0  0  0  0  0  0  0  0  0  0  0  0
    0.7500    1.2990    0.0000 C   0  0  0  0  0  0  0  0  0  0  0  0
   -0.7500    1.2990    0.0000 C   0  0  0  0  0  0  0  0  0  0  0  0
   -1.5000    0.0000    0.0000 C   0  0  0  0  0  0  0  0  0  0  0  0
   -0.7500   -1.2990    0.0000 C   0  0  0  0  0  0  0  0  0  0  0  0
   -2.1834   -1.7412    0.0000 C   0  0  0  0  0  0  0  0  0  0  0  0
   -2.8342   -0.3897    0.0000 O   0  0  0  0  0  0  0  0  0  0  0  0
   -3.4227   -2.5862    0.0000 N   0  0  0  0  0  0  0  0  0  0  0  0
   -4.3580   -3.7589    0.0000 C   0  0  0  0  0  0  0  0  0  0  0  0
   -5.6570   -3.0089    0.0000 C   0  0  0  0  0  0  0  0  0  0  0  0
   -5.6570   -1.5089    0.0000 C   0  0  0  0  0  0  0  0  0  0  0  0
   -4.3580   -0.7589    0.0000 C   0  0  0  0  0  0  0  0  0  0  0  0
   -4.3580    0.7411    0.0000 C   0  0  0  0  0  0  0  0  0  0  0  0
   -5.6570    1.4911    0.0000 C   0  0  0  0  0  0  0  0  0  0  0  0
   -6.9560    0.7411    0.0000 C   0  0  0  0  0  0  0  0  0  0  0  0
   -8.2551    1.4911    0.0000 C   0  0  0  0  0  0  0  0  0  0  0  0
   -9.5541    0.7411    0.0000 C   0  0  0  0  0  0  0  0  0  0  0  0
   -9.5541   -0.7589    0.0000 C   0  0  0  0  0  0  0  0  0  0  0  0
   -8.2551   -1.5089    0.0000 C   0  0  0  0  0  0  0  0  0  0  0  0
   -6.9560   -0.7589    0.0000 C   0  0  0  0  0  0  0  0  0  0  0  0
   -4.9060   -5.1552    0.0000 C   0  0  0  0  0  0  0  0  0  0  0  0
   -6.3684   -4.8214    0.0000 O   0  0  0  0  0  0  0  0  0  0  0  0
   -5.0181   -6.6510    0.0000 N   0  0  0  0  0  0  0  0  0  0  0  0
   -8.8732   -9.7574    0.0000 C   0  0  0  0  0  0  0  0  0  0  0  0
  -10.2695  -10.3055    0.0000 N   0  0  0  0  0  0  0  0  0  0  0  0
   -7.7005  -10.6927    0.0000 O   0  0  0  0  0  0  0  0  0  0  0  0
  1  2  1  0
  2  3  1  0
  2  4  1  0
  5  4  1  6
  5  6  1  0
  6  7  1  0
  7  8  2  0
  9  7  1  1
  9 10  1  0
 10 11  1  0
 11 12  1  0
 12 13  1  0
 13 14  2  0
 14 15  1  0
 15 16  2  0
 16 17  1  0
 17 18  1  0
 18 19  1  0
 19 20  1  0
 20 21  1  0
 21 22  1  0
 22 23  2  0
 22 24  1  0
 24 25  1  0
 25 26  1  0
 26 27  2  0
 26 28  1  0
 28 29  1  0
 29 30  1  0
 30 31  1  0
 31 32  1  0
 33 32  1  6
 33 34  1  0
 34 35  2  0
 34 36  1  0
 36 37  1  0
 37 38  1  6
 38 39  1  0
 39 40  2  0
 40 41  1  0
 41 42  2  0
 42 43  1  0
 43 44  2  0
 44 45  1  0
 45 46  2  0
 46 47  1  0
 47 48  2  0
 37 49  1  0
 49 50  2  0
 49 51  1  0
  5 52  1  0
 52 53  1  0
 52 54  2  0
 51  9  1  0
 17 13  1  0
 33 28  1  0
 48 39  1  0
 48 43  1  0
M  END
>  <molecule_chembl_id>  (65) 
CHEMBL5092321

>  <canonical_smiles>  (65) 
CC(C)C[C@H](NC(=O)[C@@H]1COCc2cnnn2CCCCC(=O)NCC(=O)N2CCCC[C@H]2C(=O)N[C@@H](Cc2cccc3ccccc23)C(=O)N1)C(N)=O

>  <pchembl_value_mean>  (65) 
5.115

>  <inchi>  (65) 
InChI=1S/C38H51N9O7/c1-24(2)18-29(35(39)50)42-37(52)31-23-54-22-27-20-41-45-47(27)17-8-6-15-33(48)40-21-34(49)46-16-7-5-14-32(46)38(53)43-30(36(51)44-31)19-26-12-9-11-25-10-3-4-13-28(25)26/h3-4,9-13,20,24,29-32H,5-8,14-19,21-23H2,1-2H3,(H2,39,50)(H,40,48)(H,42,52)(H,43,53)(H,44,51)/t29-,30-,31-,32-/m0/s1

$$$$

     RDKit          2D

 32 36  0  0  0  0  0  0  0  0999 V2000
    5.2500   -1.2990    0.0000 C   0  0  0  0  0  0  0  0  0  0  0  0
    3.7500   -1.2990    0.0000 C   0  0  0  0  0  0  0  0  0  0  0  0
    3.0000    0.0000    0.0000 C   0  0  0  0  0  0  0  0  0  0  0  0
    3.7500    1.2990    0.0000 O   0  0  0  0  0  0  0  0  0  0  0  0
    1.5000    0.0000    0.0000 N   0  0  0  0  0  0  0  0  0  0  0  0
    0.7500   -1.2990    0.0000 C   0  0  0  0  0  0  0  0  0  0  0  0
   -0.7500   -1.2990    0.0000 C   0  0  0  0  0  0  0  0  0  0  0  0
   -1.5000   -2.5981    0.0000 C   0  0  0  0  0  0  0  0  0  0  0  0
   -3.0000   -2.5981    0.0000 O   0  0  0  0  0  0  0  0  0  0  0  0
   -3.7500   -1.2990    0.0000 C   0  0  0  0  0  0  0  0  0  0  0  0
   -5.2500   -1.2990    0.0000 C   0  0  0  0  0  0  0  0  0  0  0  0
   -6.0000    0.0000    0.0000 N   0  0  0  0  0  0  0  0  0  0  0  0
   -5.2500    1.2990    0.0000 C   0  0  0  0  0  0  0  0  0  0  0  0
   -6.0000    2.5981    0.0000 C   0  0  0  0  0  0  0  0  0  0  0  0
   -5.2500    3.8971    0.0000 C   0  0  0  0  0  0  0  0  0  0  0  0
   -6.0000    5.1962    0.0000 C   0  0  0  0  0  0  0  0  0  0  0  0
   -5.2500    6.4952    0.0000 C   0  0  0  0  0  0  0  0  0  0  0  0
   -3.7500    6.4952    0.0000 O   0  0  0  0  0  0  0  0  0  0  0  0
   -6.0000    7.7942    0.0000 C   0  0  0  0  0  0  0  0  0  0  0  0
   -7.5000    7.7942    0.0000 C   0  0  0  0  0  0  0  0  0  0  0  0
   -8.2500    6.4952    0.0000 C   0  0  0  0  0  0  0  0  0  0  0  0
   -7.5000    5.1962    0.0000 C   0  0  0  0  0  0  0  0  0  0  0  0
   -8.2500    3.8971    0.0000 F   0  0  0  0  0  0  0  0  0  0  0  0
   -3.7500    3.8971    0.0000 C   0  0  0  0  0  0  0  0  0  0  0  0
   -3.0000    5.1962    0.0000 Cl  0  0  0  0  0  0  0  0  0  0  0  0
   -3.0000    2.5981    0.0000 C   0  0  0  0  0  0  0  0  0  0  0  0
   -3.7500    1.2990    0.0000 C   0  0  0  0  0  0  0  0  0  0  0  0
   -3.0000    0.0000    0.0000 C   0  0  0  0  0  0  0  0  0  0  0  0
   -1.5000    0.0000    0.0000 N   0  0  0  0  0  0  0  0  0  0  0  0
   -0.7500    1.2990    0.0000 C   0  0  0  0  0  0  0  0  0  0  0  0
    0.7500    1.2990    0.0000 C   0  0  0  0  0  0  0  0  0  0  0  0
    1.5000    2.5981    0.0000 C   0  0  0  0  0  0  0  0  0  0  0  0
  1  2  2  0
  2  3  1  0
  3  4  2  0
  3  5  1  0
  5  6  1  0
  7  6  1  6
  7  8  1  0
  8  9  1  0
  9 10  1  0
 10 11  2  0
 11 12  1  0
 12 13  2  0
 13 14  1  0
 14 15  2  0
 15 16  1  0
 16 17  2  0
 17 18  1  0
 17 19  1  0
 19 20  2  0
 20 21  1  0
 21 22  2  0
 22 23  1  0
 15 24  1  0
 24 25  1  0
 24 26  2  0
 26 27  1  0
 27 28  2  0
 28 29  1  0
 29 30  1  0
 30 31  1  0
 31 32  1  6
 31  5  1  0
 29  7  1  0
 28 10  1  0
 27 13  1  0
 22 16  1  0
M  END
>  <molecule_chembl_id>  (66) 
CHEMBL4461958

>  <canonical_smiles>  (66) 
C=CC(=O)N1C[C@@H]2COc3cnc4cc(-c5c(O)cccc5F)c(Cl)cc4c3N2C[C@@H]1C

>  <pchembl_value_mean>  (66) 
5.12

>  <inchi>  (66) 
InChI=1S/C24H21ClFN3O3/c1-3-22(31)28-11-14-12-32-21-9-27-19-8-15(23-18(26)5-4-6-20(23)30)17(25)7-16(19)24(21)29(14)10-13(28)2/h3-9,13-14,30H,1,10-12H2,2H3/t13-,14+/m0/s1

$$$$

     RDKit          2D

 31 35  0  0  0  0  0  0  0  0999 V2000
    3.7500   -9.0933    0.0000 C   0  0  0  0  0  0  0  0  0  0  0  0
    3.0000   -7.7942    0.0000 C   0  0  0  0  0  0  0  0  0  0  0  0
    3.7500   -6.4952    0.0000 C   0  0  0  0  0  0  0  0  0  0  0  0
    5.2500   -6.4952    0.0000 O   0  0  0  0  0  0  0  0  0  0  0  0
    3.0000   -5.1962    0.0000 N   0  0  0  0  0  0  0  0  0  0  0  0
    1.5000   -5.1962    0.0000 C   0  0  0  0  0  0  0  0  0  0  0  0
    0.7500   -3.8971    0.0000 C   0  0  0  0  0  0  0  0  0  0  0  0
    1.5000   -2.5981    0.0000 N   0  0  0  0  0  0  0  0  0  0  0  0
    0.7500   -1.2990    0.0000 C   0  0  0  0  0  0  0  0  0  0  0  0
    1.5000    0.0000    0.0000 N   0  0  0  0  0  0  0  0  0  0  0  0
    0.7500    1.2990    0.0000 C   0  0  0  0  0  0  0  0  0  0  0  0
   -0.7500    1.2990    0.0000 N   0  0  0  0  0  0  0  0  0  0  0  0
   -1.5000    0.0000    0.0000 C   0  0  0  0  0  0  0  0  0  0  0  0
   -0.7500   -1.2990    0.0000 C   0  0  0  0  0  0  0  0  0  0  0  0
   -1.5000   -2.5981    0.0000 C   0  0  0  0  0  0  0  0  0  0  0  0
   -3.0000   -2.5981    0.0000 C   0  0  0  0  0  0  0  0  0  0  0  0
   -3.7500   -1.2990    0.0000 N   0  0  0  0  0  0  0  0  0  0  0  0
   -5.2500   -1.2990    0.0000 C   0  0  0  0  0  0  0  0  0  0  0  0
   -6.0000   -2.5981    0.0000 C   0  0  0  0  0  0  0  0  0  0  0  0
   -7.5000   -2.5981    0.0000 C   0  0  0  0  0  0  0  0  0  0  0  0
   -8.2500   -3.8971    0.0000 O   0  0  0  0  0  0  0  0  0  0  0  0
   -8.2500   -1.2990    0.0000 C   0  0  0  0  0  0  0  0  0  0  0  0
   -7.5000   -0.0000    0.0000 C   0  0  0  0  0  0  0  0  0  0  0  0
   -8.2500    1.2990    0.0000 C   0  0  0  0  0  0  0  0  0  0  0  0
   -7.5000    2.5981    0.0000 C   0  0  0  0  0  0  0  0  0  0  0  0
   -6.0000    2.5981    0.0000 C   0  0  0  0  0  0  0  0  0  0  0  0
   -5.2500    1.2990    0.0000 C   0  0  0  0  0  0  0  0  0  0  0  0
   -6.0000    0.0000    0.0000 C   0  0  0  0  0  0  0  0  0  0  0  0
   -3.0000    0.0000    0.0000 C   0  0  0  0  0  0  0  0  0  0  0  0
    3.0000   -2.5981    0.0000 C   0  0  0  0  0  0  0  0  0  0  0  0
    3.7500   -3.8971    0.0000 C   0  0  0  0  0  0  0  0  0  0  0  0
  1  2  2  0
  2  3  1  0
  3  4  2  0
  3  5  1  0
  5  6  1  0
  6  7  1  0
  7  8  1  0
  8  9  1  0
  9 10  2  0
 10 11  1  0
 11 12  2  0
 12 13  1  0
 13 14  2  0
 14 15  1  0
 15 16  1  0
 16 17  1  0
 17 18  1  0
 18 19  2  0
 19 20  1  0
 20 21  1  0
 20 22  2  0
 22 23  1  0
 23 24  2  0
 24 25  1  0
 25 26  2  0
 26 27  1  0
 27 28  2  0
 17 29  1  0
  8 30  1  0
 30 31  1  0
 31  5  1  0
 14  9  1  0
 28 18  1  0
 29 13  1  0
 28 23  1  0
M  END
>  <molecule_chembl_id>  (67) 
CHEMBL4457300

>  <canonical_smiles>  (67) 
C=CC(=O)N1CCN(c2ncnc3c2CCN(c2cc(O)cc4ccccc24)C3)CC1

>  <pchembl_value_mean>  (67) 
5.12

>  <inchi>  (67) 
InChI=1S/C24H25N5O2/c1-2-23(31)27-9-11-28(12-10-27)24-20-7-8-29(15-21(20)25-16-26-24)22-14-18(30)13-17-5-3-4-6-19(17)22/h2-6,13-14,16,30H,1,7-12,15H2

$$$$

     RDKit          2D

 24 25  0  0  0  0  0  0  0  0999 V2000
    3.7500   -1.2990    0.0000 C   0  0  0  0  0  0  0  0  0  0  0  0
    3.0000    0.0000    0.0000 O   0  0  0  0  0  0  0  0  0  0  0  0
    1.5000    0.0000    0.0000 C   0  0  0  0  0  0  0  0  0  0  0  0
    0.7500   -1.2990    0.0000 C   0  0  0  0  0  0  0  0  0  0  0  0
   -0.7500   -1.2990    0.0000 C   0  0  0  0  0  0  0  0  0  0  0  0
   -1.5000   -2.5981    0.0000 C   0  0  0  0  0  0  0  0  0  0  0  0
   -0.7500   -3.8971    0.0000 O   0  0  0  0  0  0  0  0  0  0  0  0
   -3.0000   -2.5981    0.0000 C   0  0  0  0  0  0  0  0  0  0  0  0
   -3.7500   -3.8971    0.0000 C   0  0  0  0  0  0  0  0  0  0  0  0
   -5.2500   -3.8971    0.0000 C   0  0  0  0  0  0  0  0  0  0  0  0
   -6.0000   -2.5981    0.0000 C   0  0  0  0  0  0  0  0  0  0  0  0
   -5.2500   -1.2990    0.0000 F   0  0  0  0  0  0  0  0  0  0  0  0
   -7.5000   -2.5981    0.0000 C   0  0  0  0  0  0  0  0  0  0  0  0
   -8.2500   -3.8971    0.0000 C   0  0  0  0  0  0  0  0  0  0  0  0
   -7.5000   -5.1962    0.0000 C   0  0  0  0  0  0  0  0  0  0  0  0
   -6.0000   -5.1962    0.0000 C   0  0  0  0  0  0  0  0  0  0  0  0
   -5.2500   -6.4952    0.0000 F   0  0  0  0  0  0  0  0  0  0  0  0
   -1.5000    0.0000    0.0000 C   0  0  0  0  0  0  0  0  0  0  0  0
   -0.7500    1.2990    0.0000 C   0  0  0  0  0  0  0  0  0  0  0  0
   -1.5000    2.5981    0.0000 O   0  0  0  0  0  0  0  0  0  0  0  0
   -0.7500    3.8971    0.0000 C   0  0  0  0  0  0  0  0  0  0  0  0
    0.7500    1.2990    0.0000 C   0  0  0  0  0  0  0  0  0  0  0  0
    1.5000    2.5981    0.0000 O   0  0  0  0  0  0  0  0  0  0  0  0
    3.0000    2.5981    0.0000 C   0  0  0  0  0  0  0  0  0  0  0  0
  1  2  1  0
  2  3  1  0
  3  4  2  0
  4  5  1  0
  5  6  1  0
  6  7  2  0
  6  8  1  0
  8  9  2  0
  9 10  1  0
 10 11  2  0
 11 12  1  0
 11 13  1  0
 13 14  2  0
 14 15  1  0
 15 16  2  0
 16 17  1  0
  5 18  2  0
 18 19  1  0
 19 20  1  0
 20 21  1  0
 19 22  2  0
 22 23  1  0
 23 24  1  0
 22  3  1  0
 16 10  1  0
M  END
>  <molecule_chembl_id>  (68) 
CHEMBL4646677

>  <canonical_smiles>  (68) 
COc1cc(C(=O)/C=C/c2c(F)cccc2F)cc(OC)c1OC

>  <pchembl_value_mean>  (68) 
5.13

>  <inchi>  (68) 
InChI=1S/C18H16F2O4/c1-22-16-9-11(10-17(23-2)18(16)24-3)15(21)8-7-12-13(19)5-4-6-14(12)20/h4-10H,1-3H3/b8-7+

$$$$

     RDKit          2D

152160  0  0  0  0  0  0  0  0999 V2000
    3.3925  -23.2351    0.0000 C   0  0  0  0  0  0  0  0  0  0  0  0
    2.5475  -21.9958    0.0000 C   0  0  0  0  0  0  0  0  0  0  0  0
    3.1984  -20.6443    0.0000 C   0  0  0  0  0  0  0  0  0  0  0  0
    2.3534  -19.4050    0.0000 C   0  0  0  0  0  0  0  0  0  0  0  0
    3.0042  -18.0535    0.0000 C   0  0  0  0  0  0  0  0  0  0  0  0
    2.1592  -16.8142    0.0000 N   0  0  0  0  0  0  0  0  0  0  0  0
    2.8100  -15.4627    0.0000 C   0  0  0  0  0  0  0  0  0  0  0  0
    4.3059  -15.3506    0.0000 O   0  0  0  0  0  0  0  0  0  0  0  0
    1.9651  -14.2233    0.0000 C   0  0  0  0  0  0  0  0  0  0  0  0
    2.6159  -12.8719    0.0000 N   0  0  0  0  0  0  0  0  0  0  0  0
    1.7709  -11.6325    0.0000 C   0  0  0  0  0  0  0  0  0  0  0  0
    0.2751  -11.7446    0.0000 O   0  0  0  0  0  0  0  0  0  0  0  0
    2.4217  -10.2811    0.0000 C   0  0  0  0  0  0  0  0  0  0  0  0
    1.5768   -9.0417    0.0000 C   0  0  0  0  0  0  0  0  0  0  0  0
    0.0810   -9.1538    0.0000 C   0  0  0  0  0  0  0  0  0  0  0  0
   -0.5699  -10.5053    0.0000 C   0  0  0  0  0  0  0  0  0  0  0  0
   -2.0657  -10.6174    0.0000 C   0  0  0  0  0  0  0  0  0  0  0  0
    2.2276   -7.6903    0.0000 N   0  0  0  0  0  0  0  0  0  0  0  0
    3.7234   -7.5782    0.0000 C   0  0  0  0  0  0  0  0  0  0  0  0
    4.5684   -8.8175    0.0000 O   0  0  0  0  0  0  0  0  0  0  0  0
    4.3742   -6.2267    0.0000 C   0  0  0  0  0  0  0  0  0  0  0  0
    3.1041   -5.4287    0.0000 C   0  0  0  0  0  0  0  0  0  0  0  0
    2.0435   -4.3680    0.0000 N   0  0  0  0  0  0  0  0  0  0  0  0
    1.2454   -3.0979    0.0000 C   0  0  0  0  0  0  0  0  0  0  0  0
   -0.1060   -3.7487    0.0000 O   0  0  0  0  0  0  0  0  0  0  0  0
    0.7500   -1.2990    0.0000 C   0  0  0  0  0  0  0  0  0  0  0  0
    1.5000    0.0000    0.0000 C   0  0  0  0  0  0  0  0  0  0  0  0
    0.7500    1.2990    0.0000 C   0  0  0  0  0  0  0  0  0  0  0  0
   -0.7500    1.2990    0.0000 C   0  0  0  0  0  0  0  0  0  0  0  0
   -1.5000    0.0000    0.0000 C   0  0  0  0  0  0  0  0  0  0  0  0
   -0.7500   -1.2990    0.0000 C   0  0  0  0  0  0  0  0  0  0  0  0
   -2.7290    0.8600    0.0000 C   0  0  0  0  0  0  0  0  0  0  0  0
   -3.7259   -0.2608    0.0000 O   0  0  0  0  0  0  0  0  0  0  0  0
   -3.7264    1.9803    0.0000 N   0  0  0  0  0  0  0  0  0  0  0  0
   -4.4387    3.3004    0.0000 C   0  0  0  0  0  0  0  0  0  0  0  0
   -5.8326    2.7463    0.0000 C   0  0  0  0  0  0  0  0  0  0  0  0
   -6.0496    1.2620    0.0000 C   0  0  0  0  0  0  0  0  0  0  0  0
   -4.8727    0.3320    0.0000 C   0  0  0  0  0  0  0  0  0  0  0  0
   -5.0897   -1.1522    0.0000 C   0  0  0  0  0  0  0  0  0  0  0  0
   -6.4836   -1.7064    0.0000 C   0  0  0  0  0  0  0  0  0  0  0  0
   -6.7006   -3.1906    0.0000 C   0  0  0  0  0  0  0  0  0  0  0  0
   -8.0945   -3.7448    0.0000 C   0  0  0  0  0  0  0  0  0  0  0  0
   -9.2713   -2.8148    0.0000 C   0  0  0  0  0  0  0  0  0  0  0  0
   -9.0543   -1.3305    0.0000 C   0  0  0  0  0  0  0  0  0  0  0  0
   -7.6605   -0.7764    0.0000 C   0  0  0  0  0  0  0  0  0  0  0  0
   -7.4434    0.7079    0.0000 C   0  0  0  0  0  0  0  0  0  0  0  0
   -4.8273    4.7492    0.0000 C   0  0  0  0  0  0  0  0  0  0  0  0
   -6.3114    4.5314    0.0000 O   0  0  0  0  0  0  0  0  0  0  0  0
   -4.8713    6.2486    0.0000 N   0  0  0  0  0  0  0  0  0  0  0  0
   -4.5684    7.7177    0.0000 C   0  0  0  0  0  0  0  0  0  0  0  0
   -5.9924    8.1891    0.0000 C   0  0  0  0  0  0  0  0  0  0  0  0
   -6.2961    9.6580    0.0000 O   0  0  0  0  0  0  0  0  0  0  0  0
   -3.9348    9.0773    0.0000 C   0  0  0  0  0  0  0  0  0  0  0  0
   -5.2117    9.8644    0.0000 O   0  0  0  0  0  0  0  0  0  0  0  0
   -3.0048   10.2542    0.0000 N   0  0  0  0  0  0  0  0  0  0  0  0
   -1.8284   11.1848    0.0000 C   0  0  0  0  0  0  0  0  0  0  0  0
   -2.6162   12.4613    0.0000 C   0  0  0  0  0  0  0  0  0  0  0  0
   -1.9046   13.7818    0.0000 C   0  0  0  0  0  0  0  0  0  0  0  0
   -2.6924   15.0582    0.0000 C   0  0  0  0  0  0  0  0  0  0  0  0
   -1.9809   16.3787    0.0000 N   0  0  0  0  0  0  0  0  0  0  0  0
   -4.1918   15.0142    0.0000 O   0  0  0  0  0  0  0  0  0  0  0  0
   -0.4691   11.8191    0.0000 C   0  0  0  0  0  0  0  0  0  0  0  0
   -0.9413   13.2428    0.0000 O   0  0  0  0  0  0  0  0  0  0  0  0
    0.9998   12.1228    0.0000 N   0  0  0  0  0  0  0  0  0  0  0  0
    2.4992   12.0796    0.0000 C   0  0  0  0  0  0  0  0  0  0  0  0
    2.7162   13.5638    0.0000 C   0  0  0  0  0  0  0  0  0  0  0  0
    1.5394   14.4938    0.0000 C   0  0  0  0  0  0  0  0  0  0  0  0
    0.1455   13.9397    0.0000 C   0  0  0  0  0  0  0  0  0  0  0  0
   -1.0314   14.8697    0.0000 C   0  0  0  0  0  0  0  0  0  0  0  0
   -0.8144   16.3539    0.0000 C   0  0  0  0  0  0  0  0  0  0  0  0
   -1.9912   17.2840    0.0000 C   0  0  0  0  0  0  0  0  0  0  0  0
   -1.7742   18.7682    0.0000 C   0  0  0  0  0  0  0  0  0  0  0  0
   -0.3804   19.3224    0.0000 C   0  0  0  0  0  0  0  0  0  0  0  0
    0.7965   18.3923    0.0000 C   0  0  0  0  0  0  0  0  0  0  0  0
    0.5795   16.9081    0.0000 C   0  0  0  0  0  0  0  0  0  0  0  0
    1.7564   15.9781    0.0000 C   0  0  0  0  0  0  0  0  0  0  0  0
    3.9482   11.6917    0.0000 C   0  0  0  0  0  0  0  0  0  0  0  0
    4.5017   13.0859    0.0000 O   0  0  0  0  0  0  0  0  0  0  0  0
    5.2687   10.9802    0.0000 N   0  0  0  0  0  0  0  0  0  0  0  0
    6.3895    9.9833    0.0000 C   0  0  0  0  0  0  0  0  0  0  0  0
    7.5098   10.9808    0.0000 C   0  0  0  0  0  0  0  0  0  0  0  0
    8.9338   10.5093    0.0000 C   0  0  0  0  0  0  0  0  0  0  0  0
   10.0540   11.5068    0.0000 C   0  0  0  0  0  0  0  0  0  0  0  0
    9.7503   12.9757    0.0000 C   0  0  0  0  0  0  0  0  0  0  0  0
    8.3263   13.4472    0.0000 C   0  0  0  0  0  0  0  0  0  0  0  0
    7.2061   12.4497    0.0000 C   0  0  0  0  0  0  0  0  0  0  0  0
    7.2502    8.7548    0.0000 C   0  0  0  0  0  0  0  0  0  0  0  0
    8.5703    9.4670    0.0000 O   0  0  0  0  0  0  0  0  0  0  0  0
    7.8044    7.3609    0.0000 N   0  0  0  0  0  0  0  0  0  0  0  0
    8.7712    6.3391    0.0000 C   0  0  0  0  0  0  0  0  0  0  0  0
    7.2806    6.5070    0.0000 C   0  0  0  0  0  0  0  0  0  0  0  0
    5.7900    6.3391    0.0000 C   0  0  0  0  0  0  0  0  0  0  0  0
    4.3742    5.8437    0.0000 C   0  0  0  0  0  0  0  0  0  0  0  0
    3.1041    5.0456    0.0000 C   0  0  0  0  0  0  0  0  0  0  0  0
    2.0435    3.9849    0.0000 N   0  0  0  0  0  0  0  0  0  0  0  0
    1.2454    2.7149    0.0000 C   0  0  0  0  0  0  0  0  0  0  0  0
   -0.1060    3.3657    0.0000 O   0  0  0  0  0  0  0  0  0  0  0  0
   10.1870    5.8437    0.0000 C   0  0  0  0  0  0  0  0  0  0  0  0
   10.8378    7.1951    0.0000 O   0  0  0  0  0  0  0  0  0  0  0  0
   11.4571    5.0456    0.0000 N   0  0  0  0  0  0  0  0  0  0  0  0
   12.5177    3.9849    0.0000 C   0  0  0  0  0  0  0  0  0  0  0  0
   13.6905    4.9202    0.0000 C   0  0  0  0  0  0  0  0  0  0  0  0
   15.0868    4.3722    0.0000 C   0  0  0  0  0  0  0  0  0  0  0  0
   15.3104    2.8889    0.0000 C   0  0  0  0  0  0  0  0  0  0  0  0
   16.7067    2.3409    0.0000 C   0  0  0  0  0  0  0  0  0  0  0  0
   17.8794    3.2761    0.0000 C   0  0  0  0  0  0  0  0  0  0  0  0
   17.6559    4.7594    0.0000 C   0  0  0  0  0  0  0  0  0  0  0  0
   16.2596    5.3074    0.0000 C   0  0  0  0  0  0  0  0  0  0  0  0
   13.3158    2.7149    0.0000 C   0  0  0  0  0  0  0  0  0  0  0  0
   14.6672    3.3657    0.0000 O   0  0  0  0  0  0  0  0  0  0  0  0
   13.8112    1.2990    0.0000 N   0  0  0  0  0  0  0  0  0  0  0  0
   13.9792   -0.1915    0.0000 C   0  0  0  0  0  0  0  0  0  0  0  0
   15.4792   -0.1915    0.0000 C   0  0  0  0  0  0  0  0  0  0  0  0
   13.8112   -1.6821    0.0000 C   0  0  0  0  0  0  0  0  0  0  0  0
   15.2736   -2.0159    0.0000 O   0  0  0  0  0  0  0  0  0  0  0  0
   13.3158   -3.0979    0.0000 N   0  0  0  0  0  0  0  0  0  0  0  0
   12.5177   -4.3680    0.0000 C   0  0  0  0  0  0  0  0  0  0  0  0
   13.6905   -5.3032    0.0000 C   0  0  0  0  0  0  0  0  0  0  0  0
   13.4669   -6.7865    0.0000 C   0  0  0  0  0  0  0  0  0  0  0  0
   14.6397   -7.7217    0.0000 C   0  0  0  0  0  0  0  0  0  0  0  0
   14.4161   -9.2050    0.0000 N   0  0  0  0  0  0  0  0  0  0  0  0
   15.5889  -10.1402    0.0000 C   0  0  0  0  0  0  0  0  0  0  0  0
   16.9852   -9.5922    0.0000 N   0  0  0  0  0  0  0  0  0  0  0  0
   15.3653  -11.6235    0.0000 N   0  0  0  0  0  0  0  0  0  0  0  0
   11.4571   -5.4287    0.0000 C   0  0  0  0  0  0  0  0  0  0  0  0
   12.3923   -6.6014    0.0000 O   0  0  0  0  0  0  0  0  0  0  0  0
   10.1870   -6.2267    0.0000 N   0  0  0  0  0  0  0  0  0  0  0  0
    8.7712   -6.7221    0.0000 C   0  0  0  0  0  0  0  0  0  0  0  0
    9.1050   -8.1845    0.0000 C   0  0  0  0  0  0  0  0  0  0  0  0
    8.0054   -9.2048    0.0000 C   0  0  0  0  0  0  0  0  0  0  0  0
    8.3392  -10.6672    0.0000 C   0  0  0  0  0  0  0  0  0  0  0  0
    7.2396  -11.6874    0.0000 N   0  0  0  0  0  0  0  0  0  0  0  0
    7.5734  -13.1498    0.0000 C   0  0  0  0  0  0  0  0  0  0  0  0
    9.0067  -13.5920    0.0000 N   0  0  0  0  0  0  0  0  0  0  0  0
    6.4738  -14.1701    0.0000 N   0  0  0  0  0  0  0  0  0  0  0  0
    7.2806   -6.8901    0.0000 C   0  0  0  0  0  0  0  0  0  0  0  0
    7.2806   -8.3901    0.0000 O   0  0  0  0  0  0  0  0  0  0  0  0
    5.7900   -6.7221    0.0000 N   0  0  0  0  0  0  0  0  0  0  0  0
    4.5000  -17.9414    0.0000 C   0  0  0  0  0  0  0  0  0  0  0  0
    5.1508  -16.5900    0.0000 O   0  0  0  0  0  0  0  0  0  0  0  0
    5.3450  -19.1808    0.0000 N   0  0  0  0  0  0  0  0  0  0  0  0
    6.8408  -19.0687    0.0000 C   0  0  0  0  0  0  0  0  0  0  0  0
    7.6858  -20.3080    0.0000 C   0  0  0  0  0  0  0  0  0  0  0  0
    9.1816  -20.1959    0.0000 C   0  0  0  0  0  0  0  0  0  0  0  0
   10.0266  -21.4353    0.0000 C   0  0  0  0  0  0  0  0  0  0  0  0
   11.5224  -21.3232    0.0000 N   0  0  0  0  0  0  0  0  0  0  0  0
   12.3673  -22.5626    0.0000 C   0  0  0  0  0  0  0  0  0  0  0  0
   11.7165  -23.9140    0.0000 N   0  0  0  0  0  0  0  0  0  0  0  0
   13.8631  -22.4505    0.0000 N   0  0  0  0  0  0  0  0  0  0  0  0
    7.4916  -17.7172    0.0000 C   0  0  0  0  0  0  0  0  0  0  0  0
    8.9874  -17.6051    0.0000 N   0  0  0  0  0  0  0  0  0  0  0  0
    6.6466  -16.4779    0.0000 O   0  0  0  0  0  0  0  0  0  0  0  0
  1  2  1  0
  2  3  1  0
  3  4  1  0
  5  4  1  6
  5  6  1  0
  6  7  1  0
  7  8  2  0
  7  9  1  0
  9 10  1  0
 10 11  1  0
 11 12  2  0
 11 13  1  0
 14 13  1  6
 14 15  1  0
 15 16  1  0
 16 17  1  0
 14 18  1  0
 18 19  1  0
 19 20  2  0
 21 19  1  6
 21 22  1  0
 22 23  1  0
 23 24  1  0
 24 25  2  0
 24 26  1  0
 26 27  1  0
 27 28  2  0
 28 29  1  0
 29 30  2  0
 30 31  1  0
 30 32  1  0
 32 33  2  0
 32 34  1  0
 34 35  1  0
 35 36  1  6
 36 37  1  0
 37 38  2  0
 38 39  1  0
 39 40  2  0
 40 41  1  0
 41 42  2  0
 42 43  1  0
 43 44  2  0
 44 45  1  0
 45 46  2  0
 35 47  1  0
 47 48  2  0
 47 49  1  0
 49 50  1  0
 50 51  1  1
 51 52  1  0
 50 53  1  0
 53 54  2  0
 53 55  1  0
 55 56  1  0
 56 57  1  1
 57 58  1  0
 58 59  1  0
 59 60  1  0
 59 61  2  0
 56 62  1  0
 62 63  2  0
 62 64  1  0
 64 65  1  0
 65 66  1  6
 66 67  1  0
 67 68  2  0
 68 69  1  0
 69 70  2  0
 70 71  1  0
 71 72  2  0
 72 73  1  0
 73 74  2  0
 74 75  1  0
 75 76  2  0
 65 77  1  0
 77 78  2  0
 77 79  1  0
 79 80  1  0
 80 81  1  1
 81 82  2  0
 82 83  1  0
 83 84  2  0
 84 85  1  0
 85 86  2  0
 80 87  1  0
 87 88  2  0
 87 89  1  0
 90 89  1  6
 90 91  1  0
 91 92  1  0
 92 93  1  0
 93 94  1  0
 94 95  1  0
 95 96  1  0
 96 97  2  0
 90 98  1  0
 98 99  2  0
 98100  1  0
100101  1  0
101102  1  6
102103  1  0
103104  2  0
104105  1  0
105106  2  0
106107  1  0
107108  2  0
101109  1  0
109110  2  0
109111  1  0
111112  1  0
112113  1  1
112114  1  0
114115  2  0
114116  1  0
116117  1  0
117118  1  6
118119  1  0
119120  1  0
120121  1  0
121122  1  0
122123  2  0
122124  1  0
117125  1  0
125126  2  0
125127  1  0
127128  1  0
128129  1  1
129130  1  0
130131  1  0
131132  1  0
132133  1  0
133134  2  0
133135  1  0
128136  1  0
136137  2  0
136138  1  0
  5139  1  0
139140  2  0
139141  1  0
141142  1  0
142143  1  1
143144  1  0
144145  1  0
145146  1  0
146147  1  0
147148  2  0
147149  1  0
142150  1  0
150151  1  0
150152  2  0
138 21  1  0
 31 26  2  0
 46 37  1  0
 76 67  1  0
 86 81  1  0
108103  1  0
 96 28  1  0
 45 40  1  0
 75 70  1  0
M  END
>  <molecule_chembl_id>  (69) 
CHEMBL4864726

>  <canonical_smiles>  (69) 
CCCC[C@H](NC(=O)CNC(=O)C[C@H](CCC)NC(=O)[C@@H]1CNC(=O)c2cc3cc(c2)C(=O)N[C@H](Cc2ccc4ccccc4c2)C(=O)N[C@@H](CO)C(=O)N[C@@H](CCC(N)=O)C(=O)N[C@H](Cc2ccc4ccccc4c2)C(=O)N[C@@H](c2ccccc2)C(=O)N[C@@H](CCCCNC3=O)C(=O)N[C@H](Cc2ccccc2)C(=O)N[C@@H](C)C(=O)N[C@H](CCCNC(=N)N)C(=O)N[C@@H](CCCNC(=N)N)C(=O)N1)C(=O)N[C@H](CCCNC(=N)N)C(N)=O

>  <pchembl_value_mean>  (69) 
5.14

>  <inchi>  (69) 
InChI=1S/C104H138N28O20/c1-4-6-31-72(91(142)122-71(86(106)137)33-19-43-114-102(107)108)121-84(136)56-117-83(135)54-70(22-5-2)120-99(150)80-55-118-89(140)68-51-67-52-69(53-68)90(141)127-78(49-60-36-38-62-25-13-15-29-65(62)46-60)97(148)131-81(57-133)100(151)125-76(40-41-82(105)134)95(146)129-79(50-61-37-39-63-26-14-16-30-66(63)47-61)98(149)132-85(64-27-11-8-12-28-64)101(152)126-73(32-17-18-42-113-88(67)139)93(144)128-77(48-59-23-9-7-10-24-59)96(147)119-58(3)87(138)123-74(34-20-44-115-103(109)110)92(143)124-75(94(145)130-80)35-21-45-116-104(111)112/h7-16,23-30,36-39,46-47,51-53,58,70-81,85,133H,4-6,17-22,31-35,40-45,48-50,54-57H2,1-3H3,(H2,105,134)(H2,106,137)(H,113,139)(H,117,135)(H,118,140)(H,119,147)(H,120,150)(H,121,136)(H,122,142)(H,123,138)(H,124,143)(H,125,151)(H,126,152)(H,127,141)(H,128,144)(H,129,146)(H,130,145)(H,131,148)(H,132,149)(H4,107,108,114)(H4,109,110,115)(H4,111,112,116)/t58-,70-,71+,72-,73-,74+,75-,76-,77+,78+,79+,80-,81-,85-/m0/s1

$$$$

     RDKit          2D

 25 26  0  0  0  0  0  0  0  0999 V2000
    3.7500   -1.2990    0.0000 C   0  0  0  0  0  0  0  0  0  0  0  0
    3.0000    0.0000    0.0000 O   0  0  0  0  0  0  0  0  0  0  0  0
    1.5000    0.0000    0.0000 C   0  0  0  0  0  0  0  0  0  0  0  0
    0.7500   -1.2990    0.0000 C   0  0  0  0  0  0  0  0  0  0  0  0
   -0.7500   -1.2990    0.0000 C   0  0  0  0  0  0  0  0  0  0  0  0
   -1.5000   -2.5981    0.0000 C   0  0  0  0  0  0  0  0  0  0  0  0
   -3.0000   -2.5981    0.0000 C   0  0  0  0  0  0  0  0  0  0  0  0
   -3.7500   -3.8971    0.0000 C   0  0  0  0  0  0  0  0  0  0  0  0
   -3.0000   -5.1962    0.0000 O   0  0  0  0  0  0  0  0  0  0  0  0
   -5.2500   -3.8971    0.0000 C   0  0  0  0  0  0  0  0  0  0  0  0
   -6.0000   -2.5981    0.0000 C   0  0  0  0  0  0  0  0  0  0  0  0
   -7.5000   -2.5981    0.0000 C   0  0  0  0  0  0  0  0  0  0  0  0
   -8.2500   -3.8971    0.0000 C   0  0  0  0  0  0  0  0  0  0  0  0
   -9.7500   -3.8971    0.0000 N   0  0  0  0  0  4  0  0  0  0  0  0
  -10.5000   -5.1962    0.0000 O   0  0  0  0  0  0  0  0  0  0  0  0
  -10.5000   -2.5981    0.0000 O   0  0  0  0  0  1  0  0  0  0  0  0
   -7.5000   -5.1962    0.0000 C   0  0  0  0  0  0  0  0  0  0  0  0
   -6.0000   -5.1962    0.0000 C   0  0  0  0  0  0  0  0  0  0  0  0
   -1.5000    0.0000    0.0000 C   0  0  0  0  0  0  0  0  0  0  0  0
   -0.7500    1.2990    0.0000 C   0  0  0  0  0  0  0  0  0  0  0  0
   -1.5000    2.5981    0.0000 O   0  0  0  0  0  0  0  0  0  0  0  0
   -0.7500    3.8971    0.0000 C   0  0  0  0  0  0  0  0  0  0  0  0
    0.7500    1.2990    0.0000 C   0  0  0  0  0  0  0  0  0  0  0  0
    1.5000    2.5981    0.0000 O   0  0  0  0  0  0  0  0  0  0  0  0
    3.0000    2.5981    0.0000 C   0  0  0  0  0  0  0  0  0  0  0  0
  1  2  1  0
  2  3  1  0
  3  4  2  0
  4  5  1  0
  5  6  1  0
  6  7  2  0
  7  8  1  0
  8  9  2  0
  8 10  1  0
 10 11  2  0
 11 12  1  0
 12 13  2  0
 13 14  1  0
 14 15  2  0
 14 16  1  0
 13 17  1  0
 17 18  2  0
  5 19  2  0
 19 20  1  0
 20 21  1  0
 21 22  1  0
 20 23  2  0
 23 24  1  0
 24 25  1  0
 23  3  1  0
 18 10  1  0
M  CHG  2  14   1  16  -1
M  END
>  <molecule_chembl_id>  (70) 
CHEMBL598038

>  <canonical_smiles>  (70) 
COc1cc(/C=C/C(=O)c2ccc([N+](=O)[O-])cc2)cc(OC)c1OC

>  <pchembl_value_mean>  (70) 
5.15

>  <inchi>  (70) 
InChI=1S/C18H17NO6/c1-23-16-10-12(11-17(24-2)18(16)25-3)4-9-15(20)13-5-7-14(8-6-13)19(21)22/h4-11H,1-3H3/b9-4+

$$$$

     RDKit          2D

 53 57  0  0  0  0  0  0  0  0999 V2000
   10.2274    2.8889    0.0000 C   0  0  0  0  0  0  0  0  0  0  0  0
    9.3640    4.1154    0.0000 C   0  0  0  0  0  0  0  0  0  0  0  0
    9.9945    5.4765    0.0000 C   0  0  0  0  0  0  0  0  0  0  0  0
    7.8700    3.9810    0.0000 C   0  0  0  0  0  0  0  0  0  0  0  0
    7.0066    5.2076    0.0000 C   0  0  0  0  0  0  0  0  0  0  0  0
    5.5126    5.0731    0.0000 N   0  0  0  0  0  0  0  0  0  0  0  0
    4.6492    6.2997    0.0000 C   0  0  0  0  0  0  0  0  0  0  0  0
    5.2797    7.6607    0.0000 O   0  0  0  0  0  0  0  0  0  0  0  0
    3.1552    6.1652    0.0000 C   0  0  0  0  0  0  0  0  0  0  0  0
    3.0655    4.6679    0.0000 C   0  0  0  0  0  0  0  0  0  0  0  0
    2.5385    3.2636    0.0000 O   0  0  0  0  0  0  0  0  0  0  0  0
    1.6209    2.0770    0.0000 C   0  0  0  0  0  0  0  0  0  0  0  0
    0.3943    1.2135    0.0000 C   0  0  0  0  0  0  0  0  0  0  0  0
    1.2760    0.0000    0.0000 C   0  0  0  0  0  0  0  0  0  0  0  0
    0.3943   -1.2135    0.0000 N   0  0  0  0  0  0  0  0  0  0  0  0
   -1.0323   -0.7500    0.0000 N   0  0  0  0  0  0  0  0  0  0  0  0
   -1.0323    0.7500    0.0000 N   0  0  0  0  0  0  0  0  0  0  0  0
   -2.5321    0.7276    0.0000 C   0  0  0  0  0  0  0  0  0  0  0  0
   -3.9719    1.1482    0.0000 C   0  0  0  0  0  0  0  0  0  0  0  0
   -5.2238    1.9745    0.0000 C   0  0  0  0  0  0  0  0  0  0  0  0
   -6.1765    3.1332    0.0000 C   0  0  0  0  0  0  0  0  0  0  0  0
   -6.7453    4.5211    0.0000 C   0  0  0  0  0  0  0  0  0  0  0  0
   -8.2025    4.1655    0.0000 O   0  0  0  0  0  0  0  0  0  0  0  0
   -6.8798    6.0151    0.0000 N   0  0  0  0  0  0  0  0  0  0  0  0
   -6.5679    7.4823    0.0000 C   0  0  0  0  0  0  0  0  0  0  0  0
   -5.8374    8.7924    0.0000 C   0  0  0  0  0  0  0  0  0  0  0  0
   -7.0240    9.7100    0.0000 O   0  0  0  0  0  0  0  0  0  0  0  0
   -4.7532    9.8290    0.0000 N   0  0  0  0  0  0  0  0  0  0  0  0
   -5.8059   10.8976    0.0000 C   0  0  0  0  0  0  0  0  0  0  0  0
   -5.1150   12.2290    0.0000 C   0  0  0  0  0  0  0  0  0  0  0  0
   -3.6352   11.9832    0.0000 C   0  0  0  0  0  0  0  0  0  0  0  0
   -3.4117   10.5000    0.0000 C   0  0  0  0  0  0  0  0  0  0  0  0
   -1.9319   10.7457    0.0000 C   0  0  0  0  0  0  0  0  0  0  0  0
   -1.9544   12.2455    0.0000 O   0  0  0  0  0  0  0  0  0  0  0  0
   -0.4455   10.5444    0.0000 N   0  0  0  0  0  0  0  0  0  0  0  0
    0.9155    9.9138    0.0000 C   0  0  0  0  0  0  0  0  0  0  0  0
    1.7419   11.1657    0.0000 C   0  0  0  0  0  0  0  0  0  0  0  0
    1.0709   12.5073    0.0000 C   0  0  0  0  0  0  0  0  0  0  0  0
   -0.4264   12.5970    0.0000 C   0  0  0  0  0  0  0  0  0  0  0  0
   -1.0974   13.9385    0.0000 C   0  0  0  0  0  0  0  0  0  0  0  0
   -0.2710   15.1904    0.0000 C   0  0  0  0  0  0  0  0  0  0  0  0
    1.2263   15.1007    0.0000 C   0  0  0  0  0  0  0  0  0  0  0  0
    2.0526   16.3525    0.0000 C   0  0  0  0  0  0  0  0  0  0  0  0
    3.5500   16.2628    0.0000 C   0  0  0  0  0  0  0  0  0  0  0  0
    4.2209   14.9213    0.0000 C   0  0  0  0  0  0  0  0  0  0  0  0
    3.3946   13.6694    0.0000 C   0  0  0  0  0  0  0  0  0  0  0  0
    1.8973   13.7591    0.0000 C   0  0  0  0  0  0  0  0  0  0  0  0
    2.0303    8.9101    0.0000 C   0  0  0  0  0  0  0  0  0  0  0  0
    3.1889    9.8628    0.0000 O   0  0  0  0  0  0  0  0  0  0  0  0
    2.7996    7.6225    0.0000 N   0  0  0  0  0  0  0  0  0  0  0  0
    7.6371    6.5686    0.0000 C   0  0  0  0  0  0  0  0  0  0  0  0
    9.1311    6.7031    0.0000 N   0  0  0  0  0  0  0  0  0  0  0  0
    6.7737    7.7952    0.0000 O   0  0  0  0  0  0  0  0  0  0  0  0
  1  2  1  0
  2  3  1  0
  2  4  1  0
  5  4  1  6
  5  6  1  0
  6  7  1  0
  7  8  2  0
  9  7  1  6
  9 10  1  0
 10 11  1  0
 11 12  1  0
 12 13  1  0
 13 14  2  0
 14 15  1  0
 15 16  2  0
 16 17  1  0
 17 18  1  0
 18 19  1  0
 19 20  1  0
 20 21  1  0
 21 22  1  0
 22 23  2  0
 22 24  1  0
 24 25  1  0
 25 26  1  0
 26 27  2  0
 26 28  1  0
 28 29  1  0
 29 30  1  0
 30 31  1  0
 32 31  1  1
 32 33  1  0
 33 34  2  0
 33 35  1  0
 35 36  1  0
 36 37  1  1
 37 38  1  0
 38 39  2  0
 39 40  1  0
 40 41  2  0
 41 42  1  0
 42 43  2  0
 43 44  1  0
 44 45  2  0
 45 46  1  0
 46 47  2  0
 36 48  1  0
 48 49  2  0
 48 50  1  0
  5 51  1  0
 51 52  1  0
 51 53  2  0
 50  9  1  0
 17 13  1  0
 32 28  1  0
 47 38  1  0
 47 42  1  0
M  END
>  <molecule_chembl_id>  (71) 
CHEMBL5075687

>  <canonical_smiles>  (71) 
CC(C)C[C@H](NC(=O)[C@@H]1COCc2cnnn2CCCCC(=O)NCC(=O)N2CCC[C@H]2C(=O)N[C@@H](Cc2cccc3ccccc23)C(=O)N1)C(N)=O

>  <pchembl_value_mean>  (71) 
5.15

>  <inchi>  (71) 
InChI=1S/C37H49N9O7/c1-23(2)17-28(34(38)49)41-36(51)30-22-53-21-26-19-40-44-46(26)16-6-5-14-32(47)39-20-33(48)45-15-8-13-31(45)37(52)42-29(35(50)43-30)18-25-11-7-10-24-9-3-4-12-27(24)25/h3-4,7,9-12,19,23,28-31H,5-6,8,13-18,20-22H2,1-2H3,(H2,38,49)(H,39,47)(H,41,51)(H,42,52)(H,43,50)/t28-,29-,30-,31-/m0/s1

$$$$

     RDKit          2D

 51 55  0  0  0  0  0  0  0  0999 V2000
   10.1913    4.0571    0.0000 C   0  0  0  0  0  0  0  0  0  0  0  0
    9.1633    5.1495    0.0000 C   0  0  0  0  0  0  0  0  0  0  0  0
    9.5952    6.5859    0.0000 C   0  0  0  0  0  0  0  0  0  0  0  0
    7.7033    4.8053    0.0000 C   0  0  0  0  0  0  0  0  0  0  0  0
    6.6752    5.8976    0.0000 C   0  0  0  0  0  0  0  0  0  0  0  0
    5.2153    5.5535    0.0000 N   0  0  0  0  0  0  0  0  0  0  0  0
    4.1872    6.6458    0.0000 C   0  0  0  0  0  0  0  0  0  0  0  0
    4.6192    8.0823    0.0000 O   0  0  0  0  0  0  0  0  0  0  0  0
    2.7272    6.3017    0.0000 C   0  0  0  0  0  0  0  0  0  0  0  0
    2.8264    4.8050    0.0000 C   0  0  0  0  0  0  0  0  0  0  0  0
    2.4342    3.3572    0.0000 O   0  0  0  0  0  0  0  0  0  0  0  0
    1.5931    2.1151    0.0000 C   0  0  0  0  0  0  0  0  0  0  0  0
    0.3943    1.2135    0.0000 C   0  0  0  0  0  0  0  0  0  0  0  0
    1.2760    0.0000    0.0000 C   0  0  0  0  0  0  0  0  0  0  0  0
    0.3943   -1.2135    0.0000 N   0  0  0  0  0  0  0  0  0  0  0  0
   -1.0323   -0.7500    0.0000 N   0  0  0  0  0  0  0  0  0  0  0  0
   -1.0323    0.7500    0.0000 N   0  0  0  0  0  0  0  0  0  0  0  0
   -2.5321    0.7748    0.0000 C   0  0  0  0  0  0  0  0  0  0  0  0
   -3.9426    1.2852    0.0000 C   0  0  0  0  0  0  0  0  0  0  0  0
   -5.1109    2.2260    0.0000 C   0  0  0  0  0  0  0  0  0  0  0  0
   -6.2311    1.2285    0.0000 O   0  0  0  0  0  0  0  0  0  0  0  0
   -5.9104    3.4951    0.0000 N   0  0  0  0  0  0  0  0  0  0  0  0
   -6.2546    4.9551    0.0000 C   0  0  0  0  0  0  0  0  0  0  0  0
   -6.1060    6.4478    0.0000 C   0  0  0  0  0  0  0  0  0  0  0  0
   -7.5538    6.8400    0.0000 O   0  0  0  0  0  0  0  0  0  0  0  0
   -5.4808    7.8113    0.0000 N   0  0  0  0  0  0  0  0  0  0  0  0
   -6.8338    8.4589    0.0000 C   0  0  0  0  0  0  0  0  0  0  0  0
   -6.6360    9.9458    0.0000 C   0  0  0  0  0  0  0  0  0  0  0  0
   -5.1607   10.2171    0.0000 C   0  0  0  0  0  0  0  0  0  0  0  0
   -4.4468    8.8979    0.0000 C   0  0  0  0  0  0  0  0  0  0  0  0
   -3.1160    9.5899    0.0000 C   0  0  0  0  0  0  0  0  0  0  0  0
   -3.5795   11.0165    0.0000 O   0  0  0  0  0  0  0  0  0  0  0  0
   -1.6325    9.8123    0.0000 N   0  0  0  0  0  0  0  0  0  0  0  0
   -0.1573    9.5410    0.0000 C   0  0  0  0  0  0  0  0  0  0  0  0
    0.3532   10.9515    0.0000 C   0  0  0  0  0  0  0  0  0  0  0  0
   -0.6131   12.0988    0.0000 C   0  0  0  0  0  0  0  0  0  0  0  0
   -2.0899   11.8356    0.0000 C   0  0  0  0  0  0  0  0  0  0  0  0
   -3.0561   12.9829    0.0000 C   0  0  0  0  0  0  0  0  0  0  0  0
   -2.5457   14.3934    0.0000 C   0  0  0  0  0  0  0  0  0  0  0  0
   -1.0690   14.6565    0.0000 C   0  0  0  0  0  0  0  0  0  0  0  0
   -0.5585   16.0670    0.0000 C   0  0  0  0  0  0  0  0  0  0  0  0
    0.9182   16.3302    0.0000 C   0  0  0  0  0  0  0  0  0  0  0  0
    1.8845   15.1829    0.0000 C   0  0  0  0  0  0  0  0  0  0  0  0
    1.3740   13.7724    0.0000 C   0  0  0  0  0  0  0  0  0  0  0  0
   -0.1027   13.5092    0.0000 C   0  0  0  0  0  0  0  0  0  0  0  0
    1.1500    8.8054    0.0000 C   0  0  0  0  0  0  0  0  0  0  0  0
    2.0907    9.9737    0.0000 O   0  0  0  0  0  0  0  0  0  0  0  0
    2.1475    7.6851    0.0000 N   0  0  0  0  0  0  0  0  0  0  0  0
    7.1072    7.3341    0.0000 C   0  0  0  0  0  0  0  0  0  0  0  0
    8.5672    7.6782    0.0000 N   0  0  0  0  0  0  0  0  0  0  0  0
    6.0792    8.4264    0.0000 O   0  0  0  0  0  0  0  0  0  0  0  0
  1  2  1  0
  2  3  1  0
  2  4  1  0
  5  4  1  6
  5  6  1  0
  6  7  1  0
  7  8  2  0
  9  7  1  6
  9 10  1  0
 10 11  1  0
 11 12  1  0
 12 13  1  0
 13 14  2  0
 14 15  1  0
 15 16  2  0
 16 17  1  0
 17 18  1  0
 18 19  1  0
 19 20  1  0
 20 21  2  0
 20 22  1  0
 22 23  1  0
 23 24  1  0
 24 25  2  0
 24 26  1  0
 26 27  1  0
 27 28  1  0
 28 29  1  0
 30 29  1  1
 30 31  1  0
 31 32  2  0
 31 33  1  0
 33 34  1  0
 34 35  1  1
 35 36  1  0
 36 37  2  0
 37 38  1  0
 38 39  2  0
 39 40  1  0
 40 41  2  0
 41 42  1  0
 42 43  2  0
 43 44  1  0
 44 45  2  0
 34 46  1  0
 46 47  2  0
 46 48  1  0
  5 49  1  0
 49 50  1  0
 49 51  2  0
 48  9  1  0
 17 13  1  0
 30 26  1  0
 45 36  1  0
 45 40  1  0
M  END
>  <molecule_chembl_id>  (72) 
CHEMBL5086194

>  <canonical_smiles>  (72) 
CC(C)C[C@H](NC(=O)[C@@H]1COCc2cnnn2CCC(=O)NCC(=O)N2CCC[C@H]2C(=O)N[C@@H](Cc2cccc3ccccc23)C(=O)N1)C(N)=O

>  <pchembl_value_mean>  (72) 
5.155

>  <inchi>  (72) 
InChI=1S/C35H45N9O7/c1-21(2)15-26(32(36)47)39-34(49)28-20-51-19-24-17-38-42-44(24)14-12-30(45)37-18-31(46)43-13-6-11-29(43)35(50)40-27(33(48)41-28)16-23-9-5-8-22-7-3-4-10-25(22)23/h3-5,7-10,17,21,26-29H,6,11-16,18-20H2,1-2H3,(H2,36,47)(H,37,45)(H,39,49)(H,40,50)(H,41,48)/t26-,27-,28-,29-/m0/s1

$$$$

     RDKit          2D

 54 58  0  0  0  0  0  0  0  0999 V2000
  -12.3915   -6.9517    0.0000 C   0  0  0  0  0  0  0  0  0  0  0  0
  -11.2187   -7.8870    0.0000 C   0  0  0  0  0  0  0  0  0  0  0  0
  -11.4423   -9.3702    0.0000 C   0  0  0  0  0  0  0  0  0  0  0  0
   -9.8224   -7.3390    0.0000 C   0  0  0  0  0  0  0  0  0  0  0  0
   -8.6496   -8.2742    0.0000 C   0  0  0  0  0  0  0  0  0  0  0  0
   -7.2533   -7.7262    0.0000 N   0  0  0  0  0  0  0  0  0  0  0  0
   -6.0806   -8.6614    0.0000 C   0  0  0  0  0  0  0  0  0  0  0  0
   -6.3042  -10.1447    0.0000 O   0  0  0  0  0  0  0  0  0  0  0  0
   -4.6843   -8.1134    0.0000 C   0  0  0  0  0  0  0  0  0  0  0  0
   -3.9343   -9.4124    0.0000 C   0  0  0  0  0  0  0  0  0  0  0  0
   -2.8347  -10.4327    0.0000 O   0  0  0  0  0  0  0  0  0  0  0  0
   -1.4832  -11.0835    0.0000 C   0  0  0  0  0  0  0  0  0  0  0  0
    0.0000  -11.3071    0.0000 C   0  0  0  0  0  0  0  0  0  0  0  0
   -0.2457  -12.7868    0.0000 C   0  0  0  0  0  0  0  0  0  0  0  0
    1.0857  -13.4778    0.0000 N   0  0  0  0  0  0  0  0  0  0  0  0
    2.1542  -12.4251    0.0000 N   0  0  0  0  0  0  0  0  0  0  0  0
    1.4832  -11.0835    0.0000 N   0  0  0  0  0  0  0  0  0  0  0  0
    2.8347  -10.4327    0.0000 C   0  0  0  0  0  0  0  0  0  0  0  0
    3.9343   -9.4124    0.0000 C   0  0  0  0  0  0  0  0  0  0  0  0
    4.6843   -8.1134    0.0000 C   0  0  0  0  0  0  0  0  0  0  0  0
    5.0181   -6.6510    0.0000 C   0  0  0  0  0  0  0  0  0  0  0  0
    4.9060   -5.1552    0.0000 C   0  0  0  0  0  0  0  0  0  0  0  0
    6.3684   -4.8214    0.0000 O   0  0  0  0  0  0  0  0  0  0  0  0
    4.3580   -3.7589    0.0000 N   0  0  0  0  0  0  0  0  0  0  0  0
    3.4227   -2.5862    0.0000 C   0  0  0  0  0  0  0  0  0  0  0  0
    2.1834   -1.7412    0.0000 C   0  0  0  0  0  0  0  0  0  0  0  0
    2.8342   -0.3897    0.0000 O   0  0  0  0  0  0  0  0  0  0  0  0
    0.7500   -1.2990    0.0000 N   0  0  0  0  0  0  0  0  0  0  0  0
    1.5000    0.0000    0.0000 C   0  0  0  0  0  0  0  0  0  0  0  0
    0.7500    1.2990    0.0000 C   0  0  0  0  0  0  0  0  0  0  0  0
   -0.7500    1.2990    0.0000 O   0  0  0  0  0  0  0  0  0  0  0  0
   -1.5000    0.0000    0.0000 C   0  0  0  0  0  0  0  0  0  0  0  0
   -0.7500   -1.2990    0.0000 C   0  0  0  0  0  0  0  0  0  0  0  0
   -2.1834   -1.7412    0.0000 C   0  0  0  0  0  0  0  0  0  0  0  0
   -2.8342   -0.3897    0.0000 O   0  0  0  0  0  0  0  0  0  0  0  0
   -3.4227   -2.5862    0.0000 N   0  0  0  0  0  0  0  0  0  0  0  0
   -4.3580   -3.7589    0.0000 C   0  0  0  0  0  0  0  0  0  0  0  0
   -5.6570   -3.0089    0.0000 C   0  0  0  0  0  0  0  0  0  0  0  0
   -5.6570   -1.5089    0.0000 C   0  0  0  0  0  0  0  0  0  0  0  0
   -4.3580   -0.7589    0.0000 C   0  0  0  0  0  0  0  0  0  0  0  0
   -4.3580    0.7411    0.0000 C   0  0  0  0  0  0  0  0  0  0  0  0
   -5.6570    1.4911    0.0000 C   0  0  0  0  0  0  0  0  0  0  0  0
   -6.9560    0.7411    0.0000 C   0  0  0  0  0  0  0  0  0  0  0  0
   -8.2551    1.4911    0.0000 C   0  0  0  0  0  0  0  0  0  0  0  0
   -9.5541    0.7411    0.0000 C   0  0  0  0  0  0  0  0  0  0  0  0
   -9.5541   -0.7589    0.0000 C   0  0  0  0  0  0  0  0  0  0  0  0
   -8.2551   -1.5089    0.0000 C   0  0  0  0  0  0  0  0  0  0  0  0
   -6.9560   -0.7589    0.0000 C   0  0  0  0  0  0  0  0  0  0  0  0
   -4.9060   -5.1552    0.0000 C   0  0  0  0  0  0  0  0  0  0  0  0
   -6.3684   -4.8214    0.0000 O   0  0  0  0  0  0  0  0  0  0  0  0
   -5.0181   -6.6510    0.0000 N   0  0  0  0  0  0  0  0  0  0  0  0
   -8.8732   -9.7574    0.0000 C   0  0  0  0  0  0  0  0  0  0  0  0
  -10.2695  -10.3055    0.0000 N   0  0  0  0  0  0  0  0  0  0  0  0
   -7.7005  -10.6927    0.0000 O   0  0  0  0  0  0  0  0  0  0  0  0
  1  2  1  0
  2  3  1  0
  2  4  1  0
  5  4  1  6
  5  6  1  0
  6  7  1  0
  7  8  2  0
  9  7  1  1
  9 10  1  0
 10 11  1  0
 11 12  1  0
 12 13  1  0
 13 14  2  0
 14 15  1  0
 15 16  2  0
 16 17  1  0
 17 18  1  0
 18 19  1  0
 19 20  1  0
 20 21  1  0
 21 22  1  0
 22 23  2  0
 22 24  1  0
 24 25  1  0
 25 26  1  0
 26 27  2  0
 26 28  1  0
 28 29  1  0
 29 30  1  0
 30 31  1  0
 31 32  1  0
 33 32  1  6
 33 34  1  0
 34 35  2  0
 34 36  1  0
 36 37  1  0
 37 38  1  6
 38 39  1  0
 39 40  2  0
 40 41  1  0
 41 42  2  0
 42 43  1  0
 43 44  2  0
 44 45  1  0
 45 46  2  0
 46 47  1  0
 47 48  2  0
 37 49  1  0
 49 50  2  0
 49 51  1  0
  5 52  1  0
 52 53  1  0
 52 54  2  0
 51  9  1  0
 17 13  1  0
 33 28  1  0
 48 39  1  0
 48 43  1  0
M  END
>  <molecule_chembl_id>  (73) 
CHEMBL5071769

>  <canonical_smiles>  (73) 
CC(C)C[C@H](NC(=O)[C@@H]1COCc2cnnn2CCCCC(=O)NCC(=O)N2CCOC[C@H]2C(=O)N[C@@H](Cc2cccc3ccccc23)C(=O)N1)C(N)=O

>  <pchembl_value_mean>  (73) 
5.19

>  <inchi>  (73) 
InChI=1S/C37H49N9O8/c1-23(2)16-28(34(38)49)41-36(51)30-21-54-20-26-18-40-44-46(26)13-6-5-12-32(47)39-19-33(48)45-14-15-53-22-31(45)37(52)42-29(35(50)43-30)17-25-10-7-9-24-8-3-4-11-27(24)25/h3-4,7-11,18,23,28-31H,5-6,12-17,19-22H2,1-2H3,(H2,38,49)(H,39,47)(H,41,51)(H,42,52)(H,43,50)/t28-,29-,30-,31-/m0/s1

$$$$

     RDKit          2D

154160  0  0  0  0  0  0  0  0999 V2000
   -0.2519   21.0695    0.0000 C   0  0  0  0  0  0  0  0  0  0  0  0
    0.7847   22.1537    0.0000 C   0  0  0  0  0  0  0  0  0  0  0  0
    0.3641   23.5935    0.0000 O   0  0  0  0  0  0  0  0  0  0  0  0
    2.2420   21.7981    0.0000 N   0  0  0  0  0  0  0  0  0  0  0  0
    3.2786   22.8823    0.0000 C   0  0  0  0  0  0  0  0  0  0  0  0
    2.8579   24.3221    0.0000 C   0  0  0  0  0  0  0  0  0  0  0  0
    1.4007   24.6777    0.0000 C   0  0  0  0  0  0  0  0  0  0  0  0
    0.9800   26.1175    0.0000 C   0  0  0  0  0  0  0  0  0  0  0  0
   -0.4772   26.4731    0.0000 C   0  0  0  0  0  0  0  0  0  0  0  0
   -0.8978   27.9129    0.0000 N   0  0  0  0  0  0  0  0  0  0  0  0
   -2.3551   28.2686    0.0000 N   0  0  0  0  0  4  0  0  0  0  0  0
   -3.8123   28.6242    0.0000 N   0  0  0  0  0  2  0  0  0  0  0  0
    4.7358   22.5266    0.0000 C   0  0  0  0  0  0  0  0  0  0  0  0
    5.7724   23.6108    0.0000 O   0  0  0  0  0  0  0  0  0  0  0  0
    5.1564   21.0868    0.0000 N   0  0  0  0  0  0  0  0  0  0  0  0
    6.6137   20.7312    0.0000 C   0  0  0  0  0  0  0  0  0  0  0  0
    7.6503   21.8154    0.0000 C   0  0  0  0  0  0  0  0  0  0  0  0
    7.2296   23.2552    0.0000 C   0  0  0  0  0  0  0  0  0  0  0  0
    8.2662   24.3394    0.0000 C   0  0  0  0  0  0  0  0  0  0  0  0
    7.8456   25.7792    0.0000 N   0  0  0  0  0  0  0  0  0  0  0  0
    8.8822   26.8634    0.0000 C   0  0  0  0  0  0  0  0  0  0  0  0
   10.3394   26.5078    0.0000 N   0  0  0  0  0  0  0  0  0  0  0  0
    8.4615   28.3032    0.0000 N   0  0  0  0  0  0  0  0  0  0  0  0
    7.0343   19.2914    0.0000 C   0  0  0  0  0  0  0  0  0  0  0  0
    8.4915   18.9358    0.0000 O   0  0  0  0  0  0  0  0  0  0  0  0
    5.9977   18.2072    0.0000 N   0  0  0  0  0  0  0  0  0  0  0  0
    6.4184   16.7674    0.0000 C   0  0  0  0  0  0  0  0  0  0  0  0
    7.8756   16.4118    0.0000 C   0  0  0  0  0  0  0  0  0  0  0  0
    8.9122   17.4960    0.0000 C   0  0  0  0  0  0  0  0  0  0  0  0
   10.3694   17.1403    0.0000 C   0  0  0  0  0  0  0  0  0  0  0  0
   11.4060   18.2245    0.0000 N   0  0  0  0  0  0  0  0  0  0  0  0
   12.8633   17.8689    0.0000 C   0  0  0  0  0  0  0  0  0  0  0  0
   13.2839   16.4291    0.0000 N   0  0  0  0  0  0  0  0  0  0  0  0
   13.8998   18.9531    0.0000 N   0  0  0  0  0  0  0  0  0  0  0  0
    5.3818   15.6832    0.0000 C   0  0  0  0  0  0  0  0  0  0  0  0
    5.8024   14.2434    0.0000 O   0  0  0  0  0  0  0  0  0  0  0  0
    3.9245   16.0388    0.0000 N   0  0  0  0  0  0  0  0  0  0  0  0
    2.8879   14.9546    0.0000 C   0  0  0  0  0  0  0  0  0  0  0  0
    3.8748   13.8250    0.0000 C   0  0  0  0  0  0  0  0  0  0  0  0
    4.6442   12.5373    0.0000 S   0  0  0  0  0  0  0  0  0  0  0  0
    5.1713   11.1330    0.0000 S   0  0  0  0  0  0  0  0  0  0  0  0
    5.4391    9.6571    0.0000 C   0  0  0  0  0  0  0  0  0  0  0  0
    5.4391    8.1571    0.0000 C   0  0  0  0  0  0  0  0  0  0  0  0
    6.9331    8.0226    0.0000 C   0  0  0  0  0  0  0  0  0  0  0  0
    7.7965    9.2492    0.0000 O   0  0  0  0  0  0  0  0  0  0  0  0
    7.5636    6.6616    0.0000 N   0  0  0  0  0  0  0  0  0  0  0  0
    9.0576    6.5271    0.0000 C   0  0  0  0  0  0  0  0  0  0  0  0
    9.6881    5.1661    0.0000 C   0  0  0  0  0  0  0  0  0  0  0  0
   11.1820    5.0316    0.0000 C   0  0  0  0  0  0  0  0  0  0  0  0
   11.8126    3.6706    0.0000 C   0  0  0  0  0  0  0  0  0  0  0  0
   13.3065    3.5361    0.0000 N   0  0  0  0  0  0  0  0  0  0  0  0
   13.9371    2.1751    0.0000 C   0  0  0  0  0  0  0  0  0  0  0  0
   13.0737    0.9485    0.0000 N   0  0  0  0  0  0  0  0  0  0  0  0
   15.4310    2.0406    0.0000 N   0  0  0  0  0  0  0  0  0  0  0  0
    9.9210    7.7537    0.0000 C   0  0  0  0  0  0  0  0  0  0  0  0
    9.2904    9.1148    0.0000 O   0  0  0  0  0  0  0  0  0  0  0  0
   11.4149    7.6193    0.0000 N   0  0  0  0  0  0  0  0  0  0  0  0
   12.2784    8.8458    0.0000 C   0  0  0  0  0  0  0  0  0  0  0  0
   13.7723    8.7114    0.0000 C   0  0  0  0  0  0  0  0  0  0  0  0
   14.6358    9.9380    0.0000 C   0  0  0  0  0  0  0  0  0  0  0  0
   16.1297    9.8035    0.0000 C   0  0  0  0  0  0  0  0  0  0  0  0
   16.9931   11.0301    0.0000 N   0  0  0  0  0  0  0  0  0  0  0  0
   18.4871   10.8956    0.0000 C   0  0  0  0  0  0  0  0  0  0  0  0
   19.1176    9.5346    0.0000 N   0  0  0  0  0  0  0  0  0  0  0  0
   19.3505   12.1222    0.0000 N   0  0  0  0  0  0  0  0  0  0  0  0
   11.6478   10.2069    0.0000 C   0  0  0  0  0  0  0  0  0  0  0  0
   12.5113   11.4335    0.0000 N   0  0  0  0  0  0  0  0  0  0  0  0
   10.1539   10.3413    0.0000 O   0  0  0  0  0  0  0  0  0  0  0  0
    5.1713    6.6812    0.0000 N   0  0  0  0  0  0  0  0  0  0  0  0
    4.6442    5.2768    0.0000 C   0  0  0  0  0  0  0  0  0  0  0  0
    5.9956    4.6260    0.0000 O   0  0  0  0  0  0  0  0  0  0  0  0
    3.8748    3.9892    0.0000 C   0  0  0  0  0  0  0  0  0  0  0  0
    5.0884    3.1075    0.0000 C   0  0  0  0  0  0  0  0  0  0  0  0
    4.9316    1.6157    0.0000 C   0  0  0  0  0  0  0  0  0  0  0  0
    6.4587    3.7176    0.0000 C   0  0  0  0  0  0  0  0  0  0  0  0
    2.8879    2.8596    0.0000 N   0  0  0  0  0  0  0  0  0  0  0  0
    1.7152    1.9243    0.0000 C   0  0  0  0  0  0  0  0  0  0  0  0
    2.5415    0.6725    0.0000 O   0  0  0  0  0  0  0  0  0  0  0  0
    0.3943    1.2135    0.0000 C   0  0  0  0  0  0  0  0  0  0  0  0
    1.2760    0.0000    0.0000 C   0  0  0  0  0  0  0  0  0  0  0  0
    0.3943   -1.2135    0.0000 C   0  0  0  0  0  0  0  0  0  0  0  0
   -1.0323   -0.7500    0.0000 C   0  0  0  0  0  0  0  0  0  0  0  0
   -1.0323    0.7500    0.0000 N   0  0  0  0  0  0  0  0  0  0  0  0
   -2.5187    0.5487    0.0000 C   0  0  0  0  0  0  0  0  0  0  0  0
   -2.4514   -0.9498    0.0000 O   0  0  0  0  0  0  0  0  0  0  0  0
   -4.0172    0.6159    0.0000 C   0  0  0  0  0  0  0  0  0  0  0  0
   -4.2186   -0.8705    0.0000 C   0  0  0  0  0  0  0  0  0  0  0  0
   -5.6065   -1.4393    0.0000 C   0  0  0  0  0  0  0  0  0  0  0  0
   -6.7931   -0.5217    0.0000 O   0  0  0  0  0  0  0  0  0  0  0  0
   -5.8079   -2.9257    0.0000 O   0  0  0  0  0  0  0  0  0  0  0  0
   -5.4796    0.9497    0.0000 N   0  0  0  0  0  0  0  0  0  0  0  0
   -6.8589    1.5393    0.0000 C   0  0  0  0  0  0  0  0  0  0  0  0
   -7.5697    0.2184    0.0000 O   0  0  0  0  0  0  0  0  0  0  0  0
   -8.1107    2.3656    0.0000 C   0  0  0  0  0  0  0  0  0  0  0  0
   -9.0460    1.1929    0.0000 C   0  0  0  0  0  0  0  0  0  0  0  0
  -10.5292    1.4164    0.0000 C   0  0  0  0  0  0  0  0  0  0  0  0
  -11.0772    2.8127    0.0000 C   0  0  0  0  0  0  0  0  0  0  0  0
  -12.5605    3.0363    0.0000 C   0  0  0  0  0  0  0  0  0  0  0  0
  -13.4957    1.8636    0.0000 C   0  0  0  0  0  0  0  0  0  0  0  0
  -14.9790    2.0871    0.0000 O   0  0  0  0  0  0  0  0  0  0  0  0
  -12.9477    0.4672    0.0000 C   0  0  0  0  0  0  0  0  0  0  0  0
  -11.4645    0.2437    0.0000 C   0  0  0  0  0  0  0  0  0  0  0  0
   -9.1949    3.4022    0.0000 N   0  0  0  0  0  0  0  0  0  0  0  0
  -10.0766    4.6157    0.0000 C   0  0  0  0  0  0  0  0  0  0  0  0
  -11.3643    3.8464    0.0000 O   0  0  0  0  0  0  0  0  0  0  0  0
  -10.7274    5.9672    0.0000 C   0  0  0  0  0  0  0  0  0  0  0  0
  -12.1318    5.4401    0.0000 C   0  0  0  0  0  0  0  0  0  0  0  0
  -13.2904    6.3928    0.0000 O   0  0  0  0  0  0  0  0  0  0  0  0
  -11.1265    7.4131    0.0000 N   0  0  0  0  0  0  0  0  0  0  0  0
  -11.2610    8.9071    0.0000 C   0  0  0  0  0  0  0  0  0  0  0  0
  -12.7610    8.9071    0.0000 O   0  0  0  0  0  0  0  0  0  0  0  0
  -11.1265   10.4011    0.0000 C   0  0  0  0  0  0  0  0  0  0  0  0
  -12.6024   10.6689    0.0000 C   0  0  0  0  0  0  0  0  0  0  0  0
  -10.7274   11.8470    0.0000 N   0  0  0  0  0  0  0  0  0  0  0  0
  -10.0766   13.1984    0.0000 C   0  0  0  0  0  0  0  0  0  0  0  0
  -11.3643   13.9678    0.0000 O   0  0  0  0  0  0  0  0  0  0  0  0
   -9.1949   14.4120    0.0000 C   0  0  0  0  0  0  0  0  0  0  0  0
  -10.3245   15.3989    0.0000 C   0  0  0  0  0  0  0  0  0  0  0  0
  -11.7440   14.9141    0.0000 C   0  0  0  0  0  0  0  0  0  0  0  0
  -12.0339   13.4423    0.0000 C   0  0  0  0  0  0  0  0  0  0  0  0
  -13.4534   12.9575    0.0000 C   0  0  0  0  0  0  0  0  0  0  0  0
  -14.5830   13.9444    0.0000 C   0  0  0  0  0  0  0  0  0  0  0  0
  -16.0025   13.4596    0.0000 C   0  0  0  0  0  0  0  0  0  0  0  0
  -16.2924   11.9879    0.0000 C   0  0  0  0  0  0  0  0  0  0  0  0
  -17.7119   11.5031    0.0000 C   0  0  0  0  0  0  0  0  0  0  0  0
  -18.8415   12.4900    0.0000 C   0  0  0  0  0  0  0  0  0  0  0  0
  -18.5516   13.9617    0.0000 C   0  0  0  0  0  0  0  0  0  0  0  0
  -17.1321   14.4465    0.0000 C   0  0  0  0  0  0  0  0  0  0  0  0
  -14.2931   15.4162    0.0000 C   0  0  0  0  0  0  0  0  0  0  0  0
  -12.8736   15.9010    0.0000 C   0  0  0  0  0  0  0  0  0  0  0  0
   -8.1107   15.4486    0.0000 N   0  0  0  0  0  0  0  0  0  0  0  0
   -6.8589   16.2749    0.0000 C   0  0  0  0  0  0  0  0  0  0  0  0
   -7.5697   17.5958    0.0000 O   0  0  0  0  0  0  0  0  0  0  0  0
   -5.4796   16.8645    0.0000 C   0  0  0  0  0  0  0  0  0  0  0  0
   -5.9431   18.2910    0.0000 C   0  0  0  0  0  0  0  0  0  0  0  0
   -7.4103   18.6029    0.0000 C   0  0  0  0  0  0  0  0  0  0  0  0
   -8.4140   17.4882    0.0000 C   0  0  0  0  0  0  0  0  0  0  0  0
   -7.8739   20.0295    0.0000 C   0  0  0  0  0  0  0  0  0  0  0  0
   -4.0172   17.1982    0.0000 N   0  0  0  0  0  0  0  0  0  0  0  0
   -2.5187   17.2655    0.0000 C   0  0  0  0  0  0  0  0  0  0  0  0
   -2.8160   18.7358    0.0000 O   0  0  0  0  0  0  0  0  0  0  0  0
   -1.0323   17.0642    0.0000 C   0  0  0  0  0  0  0  0  0  0  0  0
   -1.0323   18.5642    0.0000 C   0  0  0  0  0  0  0  0  0  0  0  0
   -2.2458   19.4459    0.0000 C   0  0  0  0  0  0  0  0  0  0  0  0
   -2.0890   20.9376    0.0000 C   0  0  0  0  0  0  0  0  0  0  0  0
   -3.3025   21.8193    0.0000 C   0  0  0  0  0  0  0  0  0  0  0  0
   -4.6729   21.2092    0.0000 C   0  0  0  0  0  0  0  0  0  0  0  0
   -4.8297   19.7174    0.0000 C   0  0  0  0  0  0  0  0  0  0  0  0
   -3.6161   18.8358    0.0000 C   0  0  0  0  0  0  0  0  0  0  0  0
    0.3943   19.0277    0.0000 C   0  0  0  0  0  0  0  0  0  0  0  0
    1.2760   17.8142    0.0000 C   0  0  0  0  0  0  0  0  0  0  0  0
    0.3943   16.6007    0.0000 N   0  0  0  0  0  0  0  0  0  0  0  0
    1.7152   15.8899    0.0000 C   0  0  0  0  0  0  0  0  0  0  0  0
    2.5415   17.1417    0.0000 O   0  0  0  0  0  0  0  0  0  0  0  0
  1  2  1  0
  2  3  2  0
  2  4  1  0
  4  5  1  0
  5  6  1  1
  6  7  1  0
  7  8  1  0
  8  9  1  0
  9 10  1  0
 10 11  2  0
 11 12  2  0
  5 13  1  0
 13 14  2  0
 13 15  1  0
 15 16  1  0
 16 17  1  1
 17 18  1  0
 18 19  1  0
 19 20  1  0
 20 21  1  0
 21 22  2  0
 21 23  1  0
 16 24  1  0
 24 25  2  0
 24 26  1  0
 26 27  1  0
 27 28  1  1
 28 29  1  0
 29 30  1  0
 30 31  1  0
 31 32  1  0
 32 33  2  0
 32 34  1  0
 27 35  1  0
 35 36  2  0
 35 37  1  0
 38 37  1  1
 38 39  1  0
 39 40  1  0
 40 41  1  0
 41 42  1  0
 42 43  1  0
 43 44  1  1
 44 45  2  0
 44 46  1  0
 46 47  1  0
 47 48  1  6
 48 49  1  0
 49 50  1  0
 50 51  1  0
 51 52  1  0
 52 53  2  0
 52 54  1  0
 47 55  1  0
 55 56  2  0
 55 57  1  0
 57 58  1  0
 58 59  1  6
 59 60  1  0
 60 61  1  0
 61 62  1  0
 62 63  1  0
 63 64  2  0
 63 65  1  0
 58 66  1  0
 66 67  1  0
 66 68  2  0
 43 69  1  0
 69 70  1  0
 70 71  2  0
 70 72  1  0
 72 73  1  6
 73 74  1  0
 73 75  1  0
 72 76  1  0
 76 77  1  0
 77 78  2  0
 77 79  1  0
 79 80  1  6
 80 81  1  0
 81 82  1  0
 82 83  1  0
 83 84  1  0
 84 85  2  0
 84 86  1  0
 86 87  1  6
 87 88  1  0
 88 89  2  0
 88 90  1  0
 86 91  1  0
 91 92  1  0
 92 93  2  0
 92 94  1  0
 94 95  1  6
 95 96  1  0
 96 97  2  0
 97 98  1  0
 98 99  2  0
 99100  1  0
 99101  1  0
101102  2  0
 94103  1  0
103104  1  0
104105  2  0
104106  1  0
106107  1  6
107108  1  0
106109  1  0
109110  1  0
110111  2  0
110112  1  0
112113  1  6
112114  1  0
114115  1  0
115116  2  0
115117  1  0
117118  1  6
118119  1  0
119120  2  0
120121  1  0
121122  2  0
122123  1  0
123124  2  0
124125  1  0
125126  2  0
126127  1  0
127128  2  0
122129  1  0
129130  2  0
117131  1  0
131132  1  0
132133  2  0
132134  1  0
134135  1  6
135136  1  0
136137  1  0
136138  1  0
134139  1  0
139140  1  0
140141  2  0
142140  1  6
142143  1  0
143144  1  1
144145  2  0
145146  1  0
146147  2  0
147148  1  0
148149  2  0
143150  1  0
150151  1  0
151152  1  0
152153  1  0
153154  2  0
153 38  1  0
 83 79  1  0
102 96  1  0
130119  1  0
152142  1  0
128123  1  0
149144  1  0
M  CHG  2  11   1  12  -1
M  END
>  <molecule_chembl_id>  (74) 
CHEMBL5175141

>  <canonical_smiles>  (74) 
CC(=O)N[C@@H](CCCCN=[N+]=[N-])C(=O)N[C@@H](CCCNC(=N)N)C(=O)N[C@@H](CCCNC(=N)N)C(=O)N[C@H]1CSSC[C@@H](C(=O)N[C@@H](CCCNC(=N)N)C(=O)N[C@@H](CCCNC(=N)N)C(N)=O)NC(=O)[C@H](C(C)C)NC(=O)[C@@H]2CCCN2C(=O)[C@H](CC(=O)O)NC(=O)[C@H](Cc2ccc(O)cc2)NC(=O)[C@H](CO)NC(=O)[C@H](C)NC(=O)[C@H](Cc2ccc(-c3ccccc3)cc2)NC(=O)[C@H](CC(C)C)NC(=O)[C@@H]2[C@@H](c3ccccc3)CCN2C1=O

>  <pchembl_value_mean>  (74) 
5.19

>  <inchi>  (74) 
InChI=1S/C99H146N32O21S2/c1-53(2)46-69-87(144)121-70(47-57-30-34-60(35-31-57)59-20-9-7-10-21-59)86(143)115-55(5)81(138)125-73(50-132)89(146)122-71(48-58-32-36-62(134)37-33-58)88(145)124-72(49-77(135)136)94(151)130-44-19-29-76(130)91(148)128-78(54(3)4)92(149)126-74(90(147)120-66(26-16-40-111-97(103)104)83(140)117-64(80(100)137)25-15-39-110-96(101)102)51-153-154-52-75(95(152)131-45-38-63(79(131)93(150)123-69)61-22-11-8-12-23-61)127-85(142)68(28-18-42-113-99(107)108)119-84(141)67(27-17-41-112-98(105)106)118-82(139)65(116-56(6)133)24-13-14-43-114-129-109/h7-12,20-23,30-37,53-55,63-76,78-79,132,134H,13-19,24-29,38-52H2,1-6H3,(H2,100,137)(H,115,143)(H,116,133)(H,117,140)(H,118,139)(H,119,141)(H,120,147)(H,121,144)(H,122,146)(H,123,150)(H,124,145)(H,125,138)(H,126,149)(H,127,142)(H,128,148)(H,135,136)(H4,101,102,110)(H4,103,104,111)(H4,105,106,112)(H4,107,108,113)/t55-,63+,64-,65-,66-,67-,68-,69-,70-,71-,72-,73-,74-,75-,76-,78-,79-/m0/s1

$$$$

     RDKit          2D

 35 38  0  0  0  0  0  0  0  0999 V2000
    3.3396   -6.6207    0.0000 C   0  0  0  0  0  0  0  0  0  0  0  0
    1.8478   -6.4639    0.0000 C   0  0  0  0  0  0  0  0  0  0  0  0
    0.3560   -6.3071    0.0000 C   0  0  0  0  0  0  0  0  0  0  0  0
    1.6910   -7.9557    0.0000 C   0  0  0  0  0  0  0  0  0  0  0  0
    2.0046   -4.9721    0.0000 C   0  0  0  0  0  0  0  0  0  0  0  0
    0.8899   -3.9684    0.0000 N   0  0  0  0  0  0  0  0  0  0  0  0
    1.5000   -2.5981    0.0000 C   0  0  0  0  0  0  0  0  0  0  0  0
    0.7500   -1.2990    0.0000 C   0  0  0  0  0  0  0  0  0  0  0  0
    1.5000    0.0000    0.0000 C   0  0  0  0  0  0  0  0  0  0  0  0
    0.7500    1.2990    0.0000 C   0  0  0  0  0  0  0  0  0  0  0  0
   -0.7500    1.2990    0.0000 C   0  0  0  0  0  0  0  0  0  0  0  0
   -1.5000    0.0000    0.0000 C   0  0  0  0  0  0  0  0  0  0  0  0
   -3.0000    0.0000    0.0000 N   0  0  0  0  0  0  0  0  0  0  0  0
   -3.7500    1.2990    0.0000 S   0  0  0  0  0  0  0  0  0  0  0  0
   -2.4510    2.0490    0.0000 O   0  0  0  0  0  0  0  0  0  0  0  0
   -5.0490    0.5490    0.0000 O   0  0  0  0  0  0  0  0  0  0  0  0
   -4.5000    2.5981    0.0000 C   0  0  0  0  0  0  0  0  0  0  0  0
   -3.7500    3.8971    0.0000 C   0  0  0  0  0  0  0  0  0  0  0  0
   -2.2500    3.8971    0.0000 F   0  0  0  0  0  0  0  0  0  0  0  0
   -4.5000    5.1962    0.0000 C   0  0  0  0  0  0  0  0  0  0  0  0
   -6.0000    5.1962    0.0000 C   0  0  0  0  0  0  0  0  0  0  0  0
   -6.7500    3.8971    0.0000 C   0  0  0  0  0  0  0  0  0  0  0  0
   -6.0000    2.5981    0.0000 C   0  0  0  0  0  0  0  0  0  0  0  0
   -6.7500    1.2990    0.0000 F   0  0  0  0  0  0  0  0  0  0  0  0
   -0.7500   -1.2990    0.0000 C   0  0  0  0  0  0  0  0  0  0  0  0
   -1.5000   -2.5981    0.0000 F   0  0  0  0  0  0  0  0  0  0  0  0
    2.9918   -2.7549    0.0000 C   0  0  0  0  0  0  0  0  0  0  0  0
    3.9955   -1.6402    0.0000 C   0  0  0  0  0  0  0  0  0  0  0  0
    3.5320   -0.2136    0.0000 C   0  0  0  0  0  0  0  0  0  0  0  0
    4.5356    0.9012    0.0000 C   0  0  0  0  0  0  0  0  0  0  0  0
    6.0029    0.5893    0.0000 N   0  0  0  0  0  0  0  0  0  0  0  0
    6.4664   -0.8373    0.0000 C   0  0  0  0  0  0  0  0  0  0  0  0
    7.9336   -1.1492    0.0000 N   0  0  0  0  0  0  0  0  0  0  0  0
    5.4627   -1.9520    0.0000 N   0  0  0  0  0  0  0  0  0  0  0  0
    3.3037   -4.2221    0.0000 S   0  0  0  0  0  0  0  0  0  0  0  0
  1  2  1  0
  2  3  1  0
  2  4  1  0
  2  5  1  0
  5  6  2  0
  6  7  1  0
  7  8  1  0
  8  9  2  0
  9 10  1  0
 10 11  2  0
 11 12  1  0
 12 13  1  0
 13 14  1  0
 14 15  2  0
 14 16  2  0
 14 17  1  0
 17 18  2  0
 18 19  1  0
 18 20  1  0
 20 21  2  0
 21 22  1  0
 22 23  2  0
 23 24  1  0
 12 25  2  0
 25 26  1  0
  7 27  2  0
 27 28  1  0
 28 29  2  0
 29 30  1  0
 30 31  2  0
 31 32  1  0
 32 33  1  0
 32 34  2  0
 27 35  1  0
 35  5  1  0
 25  8  1  0
 34 28  1  0
 23 17  1  0
M  END
>  <molecule_chembl_id>  (75) 
CHEMBL2028663

>  <canonical_smiles>  (75) 
CC(C)(C)c1nc(-c2cccc(NS(=O)(=O)c3c(F)cccc3F)c2F)c(-c2ccnc(N)n2)s1

>  <pchembl_value_mean>  (75) 
5.23

>  <inchi>  (75) 
InChI=1S/C23H20F3N5O2S2/c1-23(2,3)21-30-18(19(34-21)16-10-11-28-22(27)29-16)12-6-4-9-15(17(12)26)31-35(32,33)20-13(24)7-5-8-14(20)25/h4-11,31H,1-3H3,(H2,27,28,29)

$$$$

     RDKit          2D

156165  0  0  0  0  0  0  0  0999 V2000
   15.4792   -0.1915    0.0000 C   0  0  0  0  0  0  0  0  0  0  0  0
   13.9792   -0.1915    0.0000 C   0  0  0  0  0  0  0  0  0  0  0  0
   13.8112   -1.6821    0.0000 N   0  0  0  0  0  0  0  0  0  0  0  0
   13.3158   -3.0979    0.0000 C   0  0  0  0  0  0  0  0  0  0  0  0
   14.6672   -3.7487    0.0000 O   0  0  0  0  0  0  0  0  0  0  0  0
   12.5177   -4.3680    0.0000 C   0  0  0  0  0  0  0  0  0  0  0  0
   13.6905   -5.3032    0.0000 C   0  0  0  0  0  0  0  0  0  0  0  0
   13.4669   -6.7865    0.0000 C   0  0  0  0  0  0  0  0  0  0  0  0
   12.0706   -7.3345    0.0000 C   0  0  0  0  0  0  0  0  0  0  0  0
   11.8471   -8.8177    0.0000 C   0  0  0  0  0  0  0  0  0  0  0  0
   13.0198   -9.7530    0.0000 C   0  0  0  0  0  0  0  0  0  0  0  0
   14.4161   -9.2050    0.0000 C   0  0  0  0  0  0  0  0  0  0  0  0
   14.6397   -7.7217    0.0000 C   0  0  0  0  0  0  0  0  0  0  0  0
   11.4571   -5.4287    0.0000 N   0  0  0  0  0  0  0  0  0  0  0  0
   10.1870   -6.2267    0.0000 C   0  0  0  0  0  0  0  0  0  0  0  0
   10.8378   -7.5782    0.0000 O   0  0  0  0  0  0  0  0  0  0  0  0
    8.7712   -6.7221    0.0000 C   0  0  0  0  0  0  0  0  0  0  0  0
    7.2806   -6.8901    0.0000 C   0  0  0  0  0  0  0  0  0  0  0  0
    5.7900   -6.7221    0.0000 C   0  0  0  0  0  0  0  0  0  0  0  0
    4.3742   -6.2267    0.0000 C   0  0  0  0  0  0  0  0  0  0  0  0
    3.1041   -5.4287    0.0000 C   0  0  0  0  0  0  0  0  0  0  0  0
    2.0435   -4.3680    0.0000 N   0  0  0  0  0  0  0  0  0  0  0  0
    1.2454   -3.0979    0.0000 C   0  0  0  0  0  0  0  0  0  0  0  0
   -0.1060   -3.7487    0.0000 O   0  0  0  0  0  0  0  0  0  0  0  0
    0.7500   -1.2990    0.0000 C   0  0  0  0  0  0  0  0  0  0  0  0
    1.5000    0.0000    0.0000 C   0  0  0  0  0  0  0  0  0  0  0  0
    0.7500    1.2990    0.0000 C   0  0  0  0  0  0  0  0  0  0  0  0
   -0.7500    1.2990    0.0000 C   0  0  0  0  0  0  0  0  0  0  0  0
   -1.5000    0.0000    0.0000 C   0  0  0  0  0  0  0  0  0  0  0  0
   -0.7500   -1.2990    0.0000 C   0  0  0  0  0  0  0  0  0  0  0  0
   -2.3002   -1.3623    0.0000 C   0  0  0  0  0  0  0  0  0  0  0  0
   -3.7181    0.3198    0.0000 O   0  0  0  0  0  0  0  0  0  0  0  0
   -3.2158   -2.3372    0.0000 N   0  0  0  0  0  0  0  0  0  0  0  0
   -3.8819   -3.4970    0.0000 C   0  0  0  0  0  0  0  0  0  0  0  0
   -5.9040   -2.6302    0.0000 C   0  0  0  0  0  0  0  0  0  0  0  0
   -6.0815   -1.1408    0.0000 C   0  0  0  0  0  0  0  0  0  0  0  0
   -4.8803   -0.2423    0.0000 C   0  0  0  0  0  0  0  0  0  0  0  0
   -5.0578    1.2471    0.0000 C   0  0  0  0  0  0  0  0  0  0  0  0
   -6.4365    1.8381    0.0000 C   0  0  0  0  0  0  0  0  0  0  0  0
   -6.6140    3.3276    0.0000 C   0  0  0  0  0  0  0  0  0  0  0  0
   -7.9927    3.9186    0.0000 C   0  0  0  0  0  0  0  0  0  0  0  0
   -9.1939    3.0201    0.0000 C   0  0  0  0  0  0  0  0  0  0  0  0
   -9.0163    1.5307    0.0000 C   0  0  0  0  0  0  0  0  0  0  0  0
   -7.6377    0.9397    0.0000 C   0  0  0  0  0  0  0  0  0  0  0  0
   -7.4602   -0.5498    0.0000 C   0  0  0  0  0  0  0  0  0  0  0  0
   -4.2626   -4.7792    0.0000 C   0  0  0  0  0  0  0  0  0  0  0  0
   -6.4300   -4.4021    0.0000 O   0  0  0  0  0  0  0  0  0  0  0  0
   -4.3373   -6.1146    0.0000 N   0  0  0  0  0  0  0  0  0  0  0  0
   -4.1021   -7.4312    0.0000 C   0  0  0  0  0  0  0  0  0  0  0  0
   -6.2082   -8.0669    0.0000 C   0  0  0  0  0  0  0  0  0  0  0  0
   -7.3016   -7.0400    0.0000 O   0  0  0  0  0  0  0  0  0  0  0  0
   -3.5696   -8.6581    0.0000 C   0  0  0  0  0  0  0  0  0  0  0  0
   -5.4723   -9.7624    0.0000 O   0  0  0  0  0  0  0  0  0  0  0  0
   -2.7685   -9.7291    0.0000 N   0  0  0  0  0  0  0  0  0  0  0  0
   -1.7420  -10.5864    0.0000 C   0  0  0  0  0  0  0  0  0  0  0  0
   -2.9467  -12.4273    0.0000 C   0  0  0  0  0  0  0  0  0  0  0  0
   -4.4444  -12.3434    0.0000 C   0  0  0  0  0  0  0  0  0  0  0  0
   -5.2658  -13.5985    0.0000 C   0  0  0  0  0  0  0  0  0  0  0  0
   -6.7634  -13.5147    0.0000 N   0  0  0  0  0  0  0  0  0  0  0  0
   -4.5895  -14.9375    0.0000 O   0  0  0  0  0  0  0  0  0  0  0  0
   -0.5454  -11.1840    0.0000 C   0  0  0  0  0  0  0  0  0  0  0  0
   -1.2931  -13.2530    0.0000 O   0  0  0  0  0  0  0  0  0  0  0  0
    0.7567  -11.4895    0.0000 N   0  0  0  0  0  0  0  0  0  0  0  0
    2.0942  -11.4864    0.0000 C   0  0  0  0  0  0  0  0  0  0  0  0
    2.3546  -13.6710    0.0000 C   0  0  0  0  0  0  0  0  0  0  0  0
    1.1534  -14.5694    0.0000 C   0  0  0  0  0  0  0  0  0  0  0  0
   -0.2253  -13.9785    0.0000 C   0  0  0  0  0  0  0  0  0  0  0  0
   -1.4264  -14.8769    0.0000 C   0  0  0  0  0  0  0  0  0  0  0  0
   -1.2489  -16.3664    0.0000 C   0  0  0  0  0  0  0  0  0  0  0  0
   -2.4501  -17.2648    0.0000 C   0  0  0  0  0  0  0  0  0  0  0  0
   -2.2725  -18.7543    0.0000 C   0  0  0  0  0  0  0  0  0  0  0  0
   -0.8939  -19.3453    0.0000 C   0  0  0  0  0  0  0  0  0  0  0  0
    0.3073  -18.4468    0.0000 C   0  0  0  0  0  0  0  0  0  0  0  0
    0.1298  -16.9574    0.0000 C   0  0  0  0  0  0  0  0  0  0  0  0
    1.3309  -16.0589    0.0000 C   0  0  0  0  0  0  0  0  0  0  0  0
    3.3949  -11.1751    0.0000 C   0  0  0  0  0  0  0  0  0  0  0  0
    4.1520  -13.2407    0.0000 O   0  0  0  0  0  0  0  0  0  0  0  0
    4.5887  -10.5721    0.0000 N   0  0  0  0  0  0  0  0  0  0  0  0
    5.6114   -9.7101    0.0000 C   0  0  0  0  0  0  0  0  0  0  0  0
    7.2150  -11.2162    0.0000 C   0  0  0  0  0  0  0  0  0  0  0  0
    6.8724  -12.6765    0.0000 C   0  0  0  0  0  0  0  0  0  0  0  0
    7.9658  -13.7034    0.0000 C   0  0  0  0  0  0  0  0  0  0  0  0
    9.4018  -13.2699    0.0000 C   0  0  0  0  0  0  0  0  0  0  0  0
    9.7444  -11.8096    0.0000 C   0  0  0  0  0  0  0  0  0  0  0  0
    8.6510  -10.7827    0.0000 C   0  0  0  0  0  0  0  0  0  0  0  0
    6.4076   -8.6354    0.0000 C   0  0  0  0  0  0  0  0  0  0  0  0
    8.3154   -9.7311    0.0000 O   0  0  0  0  0  0  0  0  0  0  0  0
    8.1358   -8.0625    0.0000 N   0  0  0  0  0  0  0  0  0  0  0  0
    1.2454    2.7149    0.0000 C   0  0  0  0  0  0  0  0  0  0  0  0
   -0.1060    3.3657    0.0000 O   0  0  0  0  0  0  0  0  0  0  0  0
    2.0435    3.9849    0.0000 N   0  0  0  0  0  0  0  0  0  0  0  0
    3.1041    5.0456    0.0000 C   0  0  0  0  0  0  0  0  0  0  0  0
    4.3742    5.8437    0.0000 C   0  0  0  0  0  0  0  0  0  0  0  0
    3.7234    7.1951    0.0000 C   0  0  0  0  0  0  0  0  0  0  0  0
    2.2276    7.3072    0.0000 O   0  0  0  0  0  0  0  0  0  0  0  0
    4.5684    8.4345    0.0000 N   0  0  0  0  0  0  0  0  0  0  0  0
    3.9175    9.7859    0.0000 C   0  0  0  0  0  0  0  0  0  0  0  0
    4.7625   11.0253    0.0000 C   0  0  0  0  0  0  0  0  0  0  0  0
    4.1117   12.3767    0.0000 C   0  0  0  0  0  0  0  0  0  0  0  0
    4.9567   13.6161    0.0000 N   0  0  0  0  0  0  0  0  0  0  0  0
    2.4217    9.8980    0.0000 C   0  0  0  0  0  0  0  0  0  0  0  0
    1.7709   11.2495    0.0000 C   0  0  0  0  0  0  0  0  0  0  0  0
    2.6159   12.4888    0.0000 O   0  0  0  0  0  0  0  0  0  0  0  0
    0.2751   11.3616    0.0000 N   0  0  0  0  0  0  0  0  0  0  0  0
   -0.3757   12.7130    0.0000 C   0  0  0  0  0  0  0  0  0  0  0  0
   -1.8715   12.8251    0.0000 C   0  0  0  0  0  0  0  0  0  0  0  0
   -2.5224   14.1766    0.0000 C   0  0  0  0  0  0  0  0  0  0  0  0
   -4.0182   14.2887    0.0000 N   0  0  0  0  0  0  0  0  0  0  0  0
   -1.6774   15.4159    0.0000 O   0  0  0  0  0  0  0  0  0  0  0  0
    0.4693   13.9524    0.0000 C   0  0  0  0  0  0  0  0  0  0  0  0
    1.9651   13.8403    0.0000 O   0  0  0  0  0  0  0  0  0  0  0  0
   -0.1816   15.3038    0.0000 N   0  0  0  0  0  0  0  0  0  0  0  0
    0.6634   16.5432    0.0000 C   0  0  0  0  0  0  0  0  0  0  0  0
    0.0126   17.8946    0.0000 C   0  0  0  0  0  0  0  0  0  0  0  0
    0.8576   19.1340    0.0000 C   0  0  0  0  0  0  0  0  0  0  0  0
    2.3534   19.0219    0.0000 C   0  0  0  0  0  0  0  0  0  0  0  0
    3.1984   20.2613    0.0000 C   0  0  0  0  0  0  0  0  0  0  0  0
    2.5475   21.6127    0.0000 C   0  0  0  0  0  0  0  0  0  0  0  0
    3.3925   22.8521    0.0000 O   0  0  0  0  0  0  0  0  0  0  0  0
    1.0517   21.7248    0.0000 C   0  0  0  0  0  0  0  0  0  0  0  0
    0.2067   20.4855    0.0000 C   0  0  0  0  0  0  0  0  0  0  0  0
    2.1592   16.4311    0.0000 C   0  0  0  0  0  0  0  0  0  0  0  0
    2.8100   15.0796    0.0000 O   0  0  0  0  0  0  0  0  0  0  0  0
    3.0042   17.6705    0.0000 N   0  0  0  0  0  0  0  0  0  0  0  0
    4.5000   17.5584    0.0000 C   0  0  0  0  0  0  0  0  0  0  0  0
    5.1508   16.2069    0.0000 C   0  0  0  0  0  0  0  0  0  0  0  0
    6.6466   16.0948    0.0000 N   0  0  0  0  0  0  0  0  0  0  0  0
    4.3059   14.9675    0.0000 O   0  0  0  0  0  0  0  0  0  0  0  0
    5.3450   18.7977    0.0000 C   0  0  0  0  0  0  0  0  0  0  0  0
    6.8408   18.6856    0.0000 C   0  0  0  0  0  0  0  0  0  0  0  0
    4.6942   20.1492    0.0000 O   0  0  0  0  0  0  0  0  0  0  0  0
    5.7900    6.3391    0.0000 N   0  0  0  0  0  0  0  0  0  0  0  0
    7.2806    6.5070    0.0000 C   0  0  0  0  0  0  0  0  0  0  0  0
    7.2806    8.0070    0.0000 O   0  0  0  0  0  0  0  0  0  0  0  0
    8.7712    6.3391    0.0000 C   0  0  0  0  0  0  0  0  0  0  0  0
    9.1050    7.8015    0.0000 C   0  0  0  0  0  0  0  0  0  0  0  0
   10.5383    8.2436    0.0000 C   0  0  0  0  0  0  0  0  0  0  0  0
   10.8721    9.7060    0.0000 C   0  0  0  0  0  0  0  0  0  0  0  0
   12.3055   10.1481    0.0000 N   0  0  0  0  0  0  0  0  0  0  0  0
   12.6392   11.6105    0.0000 C   0  0  0  0  0  0  0  0  0  0  0  0
   11.5397   12.6308    0.0000 N   0  0  0  0  0  0  0  0  0  0  0  0
   14.0726   12.0527    0.0000 N   0  0  0  0  0  0  0  0  0  0  0  0
   10.1870    5.8437    0.0000 N   0  0  0  0  0  0  0  0  0  0  0  0
   11.4571    5.0456    0.0000 C   0  0  0  0  0  0  0  0  0  0  0  0
   12.3923    6.2184    0.0000 O   0  0  0  0  0  0  0  0  0  0  0  0
   12.5177    3.9849    0.0000 C   0  0  0  0  0  0  0  0  0  0  0  0
   13.6905    4.9202    0.0000 C   0  0  0  0  0  0  0  0  0  0  0  0
   15.0868    4.3722    0.0000 C   0  0  0  0  0  0  0  0  0  0  0  0
   16.2596    5.3074    0.0000 C   0  0  0  0  0  0  0  0  0  0  0  0
   17.6559    4.7594    0.0000 N   0  0  0  0  0  0  0  0  0  0  0  0
   18.8286    5.6946    0.0000 C   0  0  0  0  0  0  0  0  0  0  0  0
   18.6050    7.1779    0.0000 N   0  0  0  0  0  0  0  0  0  0  0  0
   20.2249    5.1466    0.0000 N   0  0  0  0  0  0  0  0  0  0  0  0
   13.3158    2.7149    0.0000 N   0  0  0  0  0  0  0  0  0  0  0  0
   13.8112    1.2990    0.0000 C   0  0  0  0  0  0  0  0  0  0  0  0
   15.2736    1.6328    0.0000 O   0  0  0  0  0  0  0  0  0  0  0  0
  2  1  1  6
  2  3  1  0
  3  4  1  0
  4  5  2  0
  4  6  1  0
  6  7  1  1
  7  8  1  0
  8  9  2  0
  9 10  1  0
 10 11  2  0
 11 12  1  0
 12 13  2  0
  6 14  1  0
 14 15  1  0
 15 16  2  0
 15 17  1  0
 17 18  1  0
 18 19  1  0
 19 20  1  0
 20 21  1  0
 21 22  1  0
 22 23  1  0
 23 24  2  0
 23 25  1  0
 25 26  1  0
 26 27  2  0
 27 28  1  0
 28 29  2  0
 29 30  1  0
 29 31  1  0
 31 32  2  0
 31 33  1  0
 33 34  1  0
 34 35  1  1
 35 36  1  0
 36 37  2  0
 37 38  1  0
 38 39  2  0
 39 40  1  0
 40 41  2  0
 41 42  1  0
 42 43  2  0
 43 44  1  0
 44 45  2  0
 34 46  1  0
 46 47  2  0
 46 48  1  0
 48 49  1  0
 49 50  1  6
 50 51  1  0
 49 52  1  0
 52 53  2  0
 52 54  1  0
 54 55  1  0
 55 56  1  6
 56 57  1  0
 57 58  1  0
 58 59  1  0
 58 60  2  0
 55 61  1  0
 61 62  2  0
 61 63  1  0
 63 64  1  0
 64 65  1  1
 65 66  1  0
 66 67  2  0
 67 68  1  0
 68 69  2  0
 69 70  1  0
 70 71  2  0
 71 72  1  0
 72 73  2  0
 73 74  1  0
 74 75  2  0
 64 76  1  0
 76 77  2  0
 76 78  1  0
 78 79  1  0
 79 80  1  6
 80 81  2  0
 81 82  1  0
 82 83  2  0
 83 84  1  0
 84 85  2  0
 79 86  1  0
 86 87  2  0
 86 88  1  0
 27 89  1  0
 89 90  2  0
 89 91  1  0
 91 92  1  0
 92 93  1  0
 93 94  1  1
 94 95  2  0
 94 96  1  0
 96 97  1  0
 97 98  1  6
 98 99  1  0
 99100  1  0
 97101  1  0
101102  1  0
102103  2  0
102104  1  0
104105  1  0
105106  1  6
106107  1  0
107108  1  0
107109  2  0
105110  1  0
110111  2  0
110112  1  0
112113  1  0
113114  1  6
114115  1  0
115116  2  0
116117  1  0
117118  2  0
118119  1  0
118120  1  0
120121  2  0
113122  1  0
122123  2  0
122124  1  0
125124  1  6
125126  1  0
126127  1  0
126128  2  0
125129  1  0
129130  1  1
129131  1  0
 93132  1  0
132133  1  0
133134  2  0
133135  1  0
135136  1  6
136137  1  0
137138  1  0
138139  1  0
139140  1  0
140141  2  0
140142  1  0
135143  1  0
143144  1  0
144145  2  0
144146  1  0
146147  1  1
147148  1  0
148149  1  0
149150  1  0
150151  1  0
151152  2  0
151153  1  0
146154  1  0
154155  1  0
155156  2  0
155  2  1  0
 13  8  1  0
 17 88  1  1
121115  1  0
 30 25  2  0
 45 36  1  0
 75 66  1  0
 85 80  1  0
 44 39  1  0
 74 69  1  0
M  END
>  <molecule_chembl_id>  (76) 
CHEMBL4861137

>  <canonical_smiles>  (76) 
C[C@@H]1NC(=O)[C@@H](Cc2ccccc2)NC(=O)[C@@H]2CCCCNC(=O)c3cc(cc(c3)C(=O)N[C@H](Cc3ccc4ccccc4c3)C(=O)N[C@@H](CO)C(=O)N[C@@H](CCC(N)=O)C(=O)N[C@H](Cc3ccc4ccccc4c3)C(=O)N[C@@H](c3ccccc3)C(=O)N2)C(=O)NC[C@@H](C(=O)N[C@@H](CCN)CC(=O)N[C@H](CC(N)=O)C(=O)N[C@H](Cc2ccc(O)cc2)C(=O)N[C@@H](C(N)=O)[C@H](C)O)NC(=O)[C@H](CCCNC(=N)N)NC(=O)[C@@H](CCCNC(=N)N)NC1=O

>  <pchembl_value_mean>  (76) 
5.24

>  <inchi>  (76) 
InChI=1S/C106H133N27O23/c1-56-89(141)122-73(26-15-41-116-105(111)112)93(145)123-74(27-16-42-117-106(113)114)95(147)130-81(102(154)120-70(38-39-107)52-85(139)121-80(53-84(109)138)99(151)129-77(46-59-30-34-71(136)35-31-59)100(152)132-86(57(2)135)88(110)140)54-118-91(143)68-49-67-50-69(51-68)92(144)126-78(47-60-28-32-62-19-9-11-23-65(62)43-60)98(150)131-82(55-134)103(155)124-75(36-37-83(108)137)96(148)128-79(48-61-29-33-63-20-10-12-24-66(63)44-61)101(153)133-87(64-21-7-4-8-22-64)104(156)125-72(25-13-14-40-115-90(67)142)94(146)127-76(97(149)119-56)45-58-17-5-3-6-18-58/h3-12,17-24,28-35,43-44,49-51,56-57,70,72-82,86-87,134-136H,13-16,25-27,36-42,45-48,52-55,107H2,1-2H3,(H2,108,137)(H2,109,138)(H2,110,140)(H,115,142)(H,118,143)(H,119,149)(H,120,154)(H,121,139)(H,122,141)(H,123,145)(H,124,155)(H,125,156)(H,126,144)(H,127,146)(H,128,148)(H,129,151)(H,130,147)(H,131,150)(H,132,152)(H,133,153)(H4,111,112,116)(H4,113,114,117)/t56-,57-,70-,72-,73+,74-,75-,76+,77+,78+,79+,80+,81-,82-,86+,87-/m0/s1

$$$$

     RDKit          2D

 58 63  0  0  0  0  0  0  0  0999 V2000
  -12.3915   -9.5498    0.0000 C   0  0  0  0  0  0  0  0  0  0  0  0
  -11.2187  -10.4850    0.0000 C   0  0  0  0  0  0  0  0  0  0  0  0
  -11.4423  -11.9683    0.0000 C   0  0  0  0  0  0  0  0  0  0  0  0
   -9.8224   -9.9370    0.0000 C   0  0  0  0  0  0  0  0  0  0  0  0
   -8.6496  -10.8723    0.0000 C   0  0  0  0  0  0  0  0  0  0  0  0
   -7.2533  -10.3243    0.0000 N   0  0  0  0  0  0  0  0  0  0  0  0
   -6.0806  -11.2595    0.0000 C   0  0  0  0  0  0  0  0  0  0  0  0
   -6.3042  -12.7427    0.0000 O   0  0  0  0  0  0  0  0  0  0  0  0
   -4.6843  -10.7115    0.0000 C   0  0  0  0  0  0  0  0  0  0  0  0
   -3.9343  -12.0105    0.0000 C   0  0  0  0  0  0  0  0  0  0  0  0
   -2.8347  -13.0308    0.0000 O   0  0  0  0  0  0  0  0  0  0  0  0
   -1.4832  -13.6816    0.0000 C   0  0  0  0  0  0  0  0  0  0  0  0
    0.0000  -13.9052    0.0000 C   0  0  0  0  0  0  0  0  0  0  0  0
   -0.2457  -15.3849    0.0000 C   0  0  0  0  0  0  0  0  0  0  0  0
    1.0857  -16.0759    0.0000 N   0  0  0  0  0  0  0  0  0  0  0  0
    2.1542  -15.0232    0.0000 N   0  0  0  0  0  0  0  0  0  0  0  0
    1.4832  -13.6816    0.0000 N   0  0  0  0  0  0  0  0  0  0  0  0
    2.8347  -13.0308    0.0000 C   0  0  0  0  0  0  0  0  0  0  0  0
    3.9343  -12.0105    0.0000 C   0  0  0  0  0  0  0  0  0  0  0  0
    4.6843  -10.7115    0.0000 C   0  0  0  0  0  0  0  0  0  0  0  0
    5.0181   -9.2491    0.0000 C   0  0  0  0  0  0  0  0  0  0  0  0
    4.9060   -7.7533    0.0000 C   0  0  0  0  0  0  0  0  0  0  0  0
    6.3684   -7.4195    0.0000 O   0  0  0  0  0  0  0  0  0  0  0  0
    4.3580   -6.3570    0.0000 N   0  0  0  0  0  0  0  0  0  0  0  0
    3.4227   -5.1842    0.0000 C   0  0  0  0  0  0  0  0  0  0  0  0
    2.1834   -4.3392    0.0000 C   0  0  0  0  0  0  0  0  0  0  0  0
    2.8342   -2.9878    0.0000 O   0  0  0  0  0  0  0  0  0  0  0  0
    0.7500   -3.8971    0.0000 N   0  0  0  0  0  0  0  0  0  0  0  0
    1.5000   -2.5981    0.0000 C   0  0  0  0  0  0  0  0  0  0  0  0
    0.7500   -1.2990    0.0000 C   0  0  0  0  0  0  0  0  0  0  0  0
    1.5000    0.0000    0.0000 C   0  0  0  0  0  0  0  0  0  0  0  0
    0.7500    1.2990    0.0000 C   0  0  0  0  0  0  0  0  0  0  0  0
   -0.7500    1.2990    0.0000 C   0  0  0  0  0  0  0  0  0  0  0  0
   -1.5000    0.0000    0.0000 C   0  0  0  0  0  0  0  0  0  0  0  0
   -0.7500   -1.2990    0.0000 C   0  0  0  0  0  0  0  0  0  0  0  0
   -1.5000   -2.5981    0.0000 C   0  0  0  0  0  0  0  0  0  0  0  0
   -0.7500   -3.8971    0.0000 C   0  0  0  0  0  0  0  0  0  0  0  0
   -2.1834   -4.3392    0.0000 C   0  0  0  0  0  0  0  0  0  0  0  0
   -2.8342   -2.9878    0.0000 O   0  0  0  0  0  0  0  0  0  0  0  0
   -3.4227   -5.1842    0.0000 N   0  0  0  0  0  0  0  0  0  0  0  0
   -4.3580   -6.3570    0.0000 C   0  0  0  0  0  0  0  0  0  0  0  0
   -5.6570   -5.6070    0.0000 C   0  0  0  0  0  0  0  0  0  0  0  0
   -5.6570   -4.1070    0.0000 C   0  0  0  0  0  0  0  0  0  0  0  0
   -4.3580   -3.3570    0.0000 C   0  0  0  0  0  0  0  0  0  0  0  0
   -4.3580   -1.8570    0.0000 C   0  0  0  0  0  0  0  0  0  0  0  0
   -5.6570   -1.1070    0.0000 C   0  0  0  0  0  0  0  0  0  0  0  0
   -6.9560   -1.8570    0.0000 C   0  0  0  0  0  0  0  0  0  0  0  0
   -8.2551   -1.1070    0.0000 C   0  0  0  0  0  0  0  0  0  0  0  0
   -9.5541   -1.8570    0.0000 C   0  0  0  0  0  0  0  0  0  0  0  0
   -9.5541   -3.3570    0.0000 C   0  0  0  0  0  0  0  0  0  0  0  0
   -8.2551   -4.1070    0.0000 C   0  0  0  0  0  0  0  0  0  0  0  0
   -6.9560   -3.3570    0.0000 C   0  0  0  0  0  0  0  0  0  0  0  0
   -4.9060   -7.7533    0.0000 C   0  0  0  0  0  0  0  0  0  0  0  0
   -6.3684   -7.4195    0.0000 O   0  0  0  0  0  0  0  0  0  0  0  0
   -5.0181   -9.2491    0.0000 N   0  0  0  0  0  0  0  0  0  0  0  0
   -8.8732  -12.3555    0.0000 C   0  0  0  0  0  0  0  0  0  0  0  0
  -10.2695  -12.9035    0.0000 N   0  0  0  0  0  0  0  0  0  0  0  0
   -7.7005  -13.2908    0.0000 O   0  0  0  0  0  0  0  0  0  0  0  0
  1  2  1  0
  2  3  1  0
  2  4  1  0
  5  4  1  6
  5  6  1  0
  6  7  1  0
  7  8  2  0
  9  7  1  1
  9 10  1  0
 10 11  1  0
 11 12  1  0
 12 13  1  0
 13 14  2  0
 14 15  1  0
 15 16  2  0
 16 17  1  0
 17 18  1  0
 18 19  1  0
 19 20  1  0
 20 21  1  0
 21 22  1  0
 22 23  2  0
 22 24  1  0
 24 25  1  0
 25 26  1  0
 26 27  2  0
 26 28  1  0
 28 29  1  0
 29 30  1  0
 30 31  2  0
 31 32  1  0
 32 33  2  0
 33 34  1  0
 34 35  2  0
 35 36  1  0
 37 36  1  6
 37 38  1  0
 38 39  2  0
 38 40  1  0
 40 41  1  0
 41 42  1  6
 42 43  1  0
 43 44  2  0
 44 45  1  0
 45 46  2  0
 46 47  1  0
 47 48  2  0
 48 49  1  0
 49 50  2  0
 50 51  1  0
 51 52  2  0
 41 53  1  0
 53 54  2  0
 53 55  1  0
  5 56  1  0
 56 57  1  0
 56 58  2  0
 55  9  1  0
 17 13  1  0
 37 28  1  0
 52 43  1  0
 35 30  1  0
 52 47  1  0
M  END
>  <molecule_chembl_id>  (77) 
CHEMBL5094784

>  <canonical_smiles>  (77) 
CC(C)C[C@H](NC(=O)[C@@H]1COCc2cnnn2CCCCC(=O)NCC(=O)N2Cc3ccccc3C[C@H]2C(=O)N[C@@H](Cc2cccc3ccccc23)C(=O)N1)C(N)=O

>  <pchembl_value_mean>  (77) 
5.24

>  <inchi>  (77) 
InChI=1S/C42H51N9O7/c1-26(2)18-33(39(43)54)46-41(56)35-25-58-24-31-21-45-49-51(31)17-8-7-16-37(52)44-22-38(53)50-23-30-12-4-3-11-28(30)20-36(50)42(57)47-34(40(55)48-35)19-29-14-9-13-27-10-5-6-15-32(27)29/h3-6,9-15,21,26,33-36H,7-8,16-20,22-25H2,1-2H3,(H2,43,54)(H,44,52)(H,46,56)(H,47,57)(H,48,55)/t33-,34-,35-,36-/m0/s1

$$$$

     RDKit          2D

168179  0  0  0  0  0  0  0  0999 V2000
   15.4792   -0.1915    0.0000 C   0  0  0  0  0  0  0  0  0  0  0  0
   13.9792   -0.1915    0.0000 C   0  0  0  0  0  0  0  0  0  0  0  0
   13.8112   -1.6821    0.0000 N   0  0  0  0  0  0  0  0  0  0  0  0
   13.3158   -3.0979    0.0000 C   0  0  0  0  0  0  0  0  0  0  0  0
   14.6672   -3.7487    0.0000 O   0  0  0  0  0  0  0  0  0  0  0  0
   12.5177   -4.3680    0.0000 C   0  0  0  0  0  0  0  0  0  0  0  0
   13.6905   -5.3032    0.0000 C   0  0  0  0  0  0  0  0  0  0  0  0
   13.4669   -6.7865    0.0000 C   0  0  0  0  0  0  0  0  0  0  0  0
   12.0706   -7.3345    0.0000 C   0  0  0  0  0  0  0  0  0  0  0  0
   11.8471   -8.8177    0.0000 C   0  0  0  0  0  0  0  0  0  0  0  0
   13.0198   -9.7530    0.0000 C   0  0  0  0  0  0  0  0  0  0  0  0
   14.4161   -9.2050    0.0000 C   0  0  0  0  0  0  0  0  0  0  0  0
   14.6397   -7.7217    0.0000 C   0  0  0  0  0  0  0  0  0  0  0  0
   11.4571   -5.4287    0.0000 N   0  0  0  0  0  0  0  0  0  0  0  0
   10.1870   -6.2267    0.0000 C   0  0  0  0  0  0  0  0  0  0  0  0
   10.8378   -7.5782    0.0000 O   0  0  0  0  0  0  0  0  0  0  0  0
    8.7712   -6.7221    0.0000 C   0  0  0  0  0  0  0  0  0  0  0  0
    7.2806   -6.8901    0.0000 C   0  0  0  0  0  0  0  0  0  0  0  0
    5.7900   -6.7221    0.0000 C   0  0  0  0  0  0  0  0  0  0  0  0
    4.3742   -6.2267    0.0000 C   0  0  0  0  0  0  0  0  0  0  0  0
    3.1041   -5.4287    0.0000 C   0  0  0  0  0  0  0  0  0  0  0  0
    2.0435   -4.3680    0.0000 N   0  0  0  0  0  0  0  0  0  0  0  0
    1.2454   -3.0979    0.0000 C   0  0  0  0  0  0  0  0  0  0  0  0
   -0.1060   -3.7487    0.0000 O   0  0  0  0  0  0  0  0  0  0  0  0
    0.7500   -1.2990    0.0000 C   0  0  0  0  0  0  0  0  0  0  0  0
    1.5000    0.0000    0.0000 C   0  0  0  0  0  0  0  0  0  0  0  0
    0.7500    1.2990    0.0000 C   0  0  0  0  0  0  0  0  0  0  0  0
   -0.7500    1.2990    0.0000 C   0  0  0  0  0  0  0  0  0  0  0  0
   -1.5000    0.0000    0.0000 C   0  0  0  0  0  0  0  0  0  0  0  0
   -0.7500   -1.2990    0.0000 C   0  0  0  0  0  0  0  0  0  0  0  0
   -2.3002   -1.3623    0.0000 C   0  0  0  0  0  0  0  0  0  0  0  0
   -3.7181    0.3198    0.0000 O   0  0  0  0  0  0  0  0  0  0  0  0
   -3.2158   -2.3372    0.0000 N   0  0  0  0  0  0  0  0  0  0  0  0
   -3.8819   -3.4970    0.0000 C   0  0  0  0  0  0  0  0  0  0  0  0
   -5.9040   -2.6302    0.0000 C   0  0  0  0  0  0  0  0  0  0  0  0
   -6.0815   -1.1408    0.0000 C   0  0  0  0  0  0  0  0  0  0  0  0
   -4.8803   -0.2423    0.0000 C   0  0  0  0  0  0  0  0  0  0  0  0
   -5.0578    1.2471    0.0000 C   0  0  0  0  0  0  0  0  0  0  0  0
   -6.4365    1.8381    0.0000 C   0  0  0  0  0  0  0  0  0  0  0  0
   -6.6140    3.3276    0.0000 C   0  0  0  0  0  0  0  0  0  0  0  0
   -7.9927    3.9186    0.0000 C   0  0  0  0  0  0  0  0  0  0  0  0
   -9.1939    3.0201    0.0000 C   0  0  0  0  0  0  0  0  0  0  0  0
   -9.0163    1.5307    0.0000 C   0  0  0  0  0  0  0  0  0  0  0  0
   -7.6377    0.9397    0.0000 C   0  0  0  0  0  0  0  0  0  0  0  0
   -7.4602   -0.5498    0.0000 C   0  0  0  0  0  0  0  0  0  0  0  0
   -4.2626   -4.7792    0.0000 C   0  0  0  0  0  0  0  0  0  0  0  0
   -6.4300   -4.4021    0.0000 O   0  0  0  0  0  0  0  0  0  0  0  0
   -4.3373   -6.1146    0.0000 N   0  0  0  0  0  0  0  0  0  0  0  0
   -4.1021   -7.4312    0.0000 C   0  0  0  0  0  0  0  0  0  0  0  0
   -6.2082   -8.0669    0.0000 C   0  0  0  0  0  0  0  0  0  0  0  0
   -7.3016   -7.0400    0.0000 O   0  0  0  0  0  0  0  0  0  0  0  0
   -3.5696   -8.6581    0.0000 C   0  0  0  0  0  0  0  0  0  0  0  0
   -5.4723   -9.7624    0.0000 O   0  0  0  0  0  0  0  0  0  0  0  0
   -2.7685   -9.7291    0.0000 N   0  0  0  0  0  0  0  0  0  0  0  0
   -1.7420  -10.5864    0.0000 C   0  0  0  0  0  0  0  0  0  0  0  0
   -2.9467  -12.4273    0.0000 C   0  0  0  0  0  0  0  0  0  0  0  0
   -4.4444  -12.3434    0.0000 C   0  0  0  0  0  0  0  0  0  0  0  0
   -5.2658  -13.5985    0.0000 C   0  0  0  0  0  0  0  0  0  0  0  0
   -6.7634  -13.5147    0.0000 N   0  0  0  0  0  0  0  0  0  0  0  0
   -4.5895  -14.9375    0.0000 O   0  0  0  0  0  0  0  0  0  0  0  0
   -0.5454  -11.1840    0.0000 C   0  0  0  0  0  0  0  0  0  0  0  0
   -1.2931  -13.2530    0.0000 O   0  0  0  0  0  0  0  0  0  0  0  0
    0.7567  -11.4895    0.0000 N   0  0  0  0  0  0  0  0  0  0  0  0
    2.0942  -11.4864    0.0000 C   0  0  0  0  0  0  0  0  0  0  0  0
    2.3546  -13.6710    0.0000 C   0  0  0  0  0  0  0  0  0  0  0  0
    1.1534  -14.5694    0.0000 C   0  0  0  0  0  0  0  0  0  0  0  0
   -0.2253  -13.9785    0.0000 C   0  0  0  0  0  0  0  0  0  0  0  0
   -1.4264  -14.8769    0.0000 C   0  0  0  0  0  0  0  0  0  0  0  0
   -1.2489  -16.3664    0.0000 C   0  0  0  0  0  0  0  0  0  0  0  0
   -2.4501  -17.2648    0.0000 C   0  0  0  0  0  0  0  0  0  0  0  0
   -2.2725  -18.7543    0.0000 C   0  0  0  0  0  0  0  0  0  0  0  0
   -0.8939  -19.3453    0.0000 C   0  0  0  0  0  0  0  0  0  0  0  0
    0.3073  -18.4468    0.0000 C   0  0  0  0  0  0  0  0  0  0  0  0
    0.1298  -16.9574    0.0000 C   0  0  0  0  0  0  0  0  0  0  0  0
    1.3309  -16.0589    0.0000 C   0  0  0  0  0  0  0  0  0  0  0  0
    3.3949  -11.1751    0.0000 C   0  0  0  0  0  0  0  0  0  0  0  0
    4.1520  -13.2407    0.0000 O   0  0  0  0  0  0  0  0  0  0  0  0
    4.5887  -10.5721    0.0000 N   0  0  0  0  0  0  0  0  0  0  0  0
    5.6114   -9.7101    0.0000 C   0  0  0  0  0  0  0  0  0  0  0  0
    7.2150  -11.2162    0.0000 C   0  0  0  0  0  0  0  0  0  0  0  0
    6.8724  -12.6765    0.0000 C   0  0  0  0  0  0  0  0  0  0  0  0
    7.9658  -13.7034    0.0000 C   0  0  0  0  0  0  0  0  0  0  0  0
    9.4018  -13.2699    0.0000 C   0  0  0  0  0  0  0  0  0  0  0  0
    9.7444  -11.8096    0.0000 C   0  0  0  0  0  0  0  0  0  0  0  0
    8.6510  -10.7827    0.0000 C   0  0  0  0  0  0  0  0  0  0  0  0
    6.4076   -8.6354    0.0000 C   0  0  0  0  0  0  0  0  0  0  0  0
    8.3154   -9.7311    0.0000 O   0  0  0  0  0  0  0  0  0  0  0  0
    8.1358   -8.0625    0.0000 N   0  0  0  0  0  0  0  0  0  0  0  0
    1.2454    2.7149    0.0000 C   0  0  0  0  0  0  0  0  0  0  0  0
   -0.1060    3.3657    0.0000 O   0  0  0  0  0  0  0  0  0  0  0  0
    2.0435    3.9849    0.0000 N   0  0  0  0  0  0  0  0  0  0  0  0
    3.1041    5.0456    0.0000 C   0  0  0  0  0  0  0  0  0  0  0  0
    4.3742    5.8437    0.0000 C   0  0  0  0  0  0  0  0  0  0  0  0
    3.7234    7.1951    0.0000 C   0  0  0  0  0  0  0  0  0  0  0  0
    2.2276    7.3072    0.0000 O   0  0  0  0  0  0  0  0  0  0  0  0
    4.5684    8.4345    0.0000 N   0  0  0  0  0  0  0  0  0  0  0  0
    3.9175    9.7859    0.0000 C   0  0  0  0  0  0  0  0  0  0  0  0
    4.7625   11.0253    0.0000 C   0  0  0  0  0  0  0  0  0  0  0  0
    4.1117   12.3767    0.0000 C   0  0  0  0  0  0  0  0  0  0  0  0
    4.9567   13.6161    0.0000 C   0  0  0  0  0  0  0  0  0  0  0  0
    6.4525   13.5040    0.0000 O   0  0  0  0  0  0  0  0  0  0  0  0
    4.3059   14.9675    0.0000 O   0  0  0  0  0  0  0  0  0  0  0  0
    2.4217    9.8980    0.0000 C   0  0  0  0  0  0  0  0  0  0  0  0
    1.5768    8.6587    0.0000 O   0  0  0  0  0  0  0  0  0  0  0  0
    1.7709   11.2495    0.0000 N   0  0  0  0  0  0  0  0  0  0  0  0
    0.2751   11.3616    0.0000 C   0  0  0  0  0  0  0  0  0  0  0  0
   -0.3757   12.7130    0.0000 C   0  0  0  0  0  0  0  0  0  0  0  0
   -1.8715   12.8251    0.0000 C   0  0  0  0  0  0  0  0  0  0  0  0
   -2.8414   11.6809    0.0000 C   0  0  0  0  0  0  0  0  0  0  0  0
   -4.2294   12.2497    0.0000 N   0  0  0  0  0  0  0  0  0  0  0  0
   -4.1173   13.7455    0.0000 C   0  0  0  0  0  0  0  0  0  0  0  0
   -2.6601   14.1011    0.0000 N   0  0  0  0  0  0  0  0  0  0  0  0
   -0.5699   10.1222    0.0000 C   0  0  0  0  0  0  0  0  0  0  0  0
    0.0810    8.7708    0.0000 O   0  0  0  0  0  0  0  0  0  0  0  0
   -2.0657   10.2343    0.0000 N   0  0  0  0  0  0  0  0  0  0  0  0
   -3.0356    9.0901    0.0000 C   0  0  0  0  0  0  0  0  0  0  0  0
   -4.4235    9.6589    0.0000 C   0  0  0  0  0  0  0  0  0  0  0  0
   -4.3114   11.1547    0.0000 C   0  0  0  0  0  0  0  0  0  0  0  0
   -2.8542   11.5103    0.0000 C   0  0  0  0  0  0  0  0  0  0  0  0
   -2.2854   12.8983    0.0000 C   0  0  0  0  0  0  0  0  0  0  0  0
   -0.8918   13.4533    0.0000 O   0  0  0  0  0  0  0  0  0  0  0  0
   -3.2030   14.0849    0.0000 N   0  0  0  0  0  0  0  0  0  0  0  0
   -2.6341   15.4728    0.0000 C   0  0  0  0  0  0  0  0  0  0  0  0
   -3.5517   16.6594    0.0000 C   0  0  0  0  0  0  0  0  0  0  0  0
   -2.9829   18.0474    0.0000 C   0  0  0  0  0  0  0  0  0  0  0  0
   -1.4964   18.2488    0.0000 C   0  0  0  0  0  0  0  0  0  0  0  0
   -0.9276   19.6367    0.0000 C   0  0  0  0  0  0  0  0  0  0  0  0
   -1.8452   20.8233    0.0000 C   0  0  0  0  0  0  0  0  0  0  0  0
   -1.2764   22.2113    0.0000 O   0  0  0  0  0  0  0  0  0  0  0  0
   -3.3316   20.6220    0.0000 C   0  0  0  0  0  0  0  0  0  0  0  0
   -3.9005   19.2340    0.0000 C   0  0  0  0  0  0  0  0  0  0  0  0
   -1.1477   15.6742    0.0000 C   0  0  0  0  0  0  0  0  0  0  0  0
   -0.2301   14.4876    0.0000 O   0  0  0  0  0  0  0  0  0  0  0  0
   -0.5789   17.0621    0.0000 N   0  0  0  0  0  0  0  0  0  0  0  0
    0.9076   17.2635    0.0000 C   0  0  0  0  0  0  0  0  0  0  0  0
    1.4764   18.6515    0.0000 C   0  0  0  0  0  0  0  0  0  0  0  0
    2.9628   18.8528    0.0000 C   0  0  0  0  0  0  0  0  0  0  0  0
    3.5317   20.2408    0.0000 C   0  0  0  0  0  0  0  0  0  0  0  0
    5.0181   20.4421    0.0000 C   0  0  0  0  0  0  0  0  0  0  0  0
    5.5869   21.8301    0.0000 N   0  0  0  0  0  0  0  0  0  0  0  0
    1.8252   16.0769    0.0000 C   0  0  0  0  0  0  0  0  0  0  0  0
    3.3116   16.2782    0.0000 N   0  0  0  0  0  0  0  0  0  0  0  0
    1.2563   14.6889    0.0000 O   0  0  0  0  0  0  0  0  0  0  0  0
    5.7900    6.3391    0.0000 N   0  0  0  0  0  0  0  0  0  0  0  0
    7.2806    6.5070    0.0000 C   0  0  0  0  0  0  0  0  0  0  0  0
    7.2806    8.0070    0.0000 O   0  0  0  0  0  0  0  0  0  0  0  0
    8.7712    6.3391    0.0000 C   0  0  0  0  0  0  0  0  0  0  0  0
    9.1050    7.8015    0.0000 C   0  0  0  0  0  0  0  0  0  0  0  0
   10.5383    8.2436    0.0000 C   0  0  0  0  0  0  0  0  0  0  0  0
   10.8721    9.7060    0.0000 C   0  0  0  0  0  0  0  0  0  0  0  0
   12.3055   10.1481    0.0000 N   0  0  0  0  0  0  0  0  0  0  0  0
   12.6392   11.6105    0.0000 C   0  0  0  0  0  0  0  0  0  0  0  0
   11.5397   12.6308    0.0000 N   0  0  0  0  0  0  0  0  0  0  0  0
   14.0726   12.0527    0.0000 N   0  0  0  0  0  0  0  0  0  0  0  0
   10.1870    5.8437    0.0000 N   0  0  0  0  0  0  0  0  0  0  0  0
   11.4571    5.0456    0.0000 C   0  0  0  0  0  0  0  0  0  0  0  0
   12.3923    6.2184    0.0000 O   0  0  0  0  0  0  0  0  0  0  0  0
   12.5177    3.9849    0.0000 C   0  0  0  0  0  0  0  0  0  0  0  0
   13.6905    4.9202    0.0000 C   0  0  0  0  0  0  0  0  0  0  0  0
   15.0868    4.3722    0.0000 C   0  0  0  0  0  0  0  0  0  0  0  0
   16.2596    5.3074    0.0000 C   0  0  0  0  0  0  0  0  0  0  0  0
   17.6559    4.7594    0.0000 N   0  0  0  0  0  0  0  0  0  0  0  0
   18.8286    5.6946    0.0000 C   0  0  0  0  0  0  0  0  0  0  0  0
   18.6050    7.1779    0.0000 N   0  0  0  0  0  0  0  0  0  0  0  0
   20.2249    5.1466    0.0000 N   0  0  0  0  0  0  0  0  0  0  0  0
   13.3158    2.7149    0.0000 N   0  0  0  0  0  0  0  0  0  0  0  0
   13.8112    1.2990    0.0000 C   0  0  0  0  0  0  0  0  0  0  0  0
   15.2736    1.6328    0.0000 O   0  0  0  0  0  0  0  0  0  0  0  0
  2  1  1  6
  2  3  1  0
  3  4  1  0
  4  5  2  0
  4  6  1  0
  6  7  1  1
  7  8  1  0
  8  9  2  0
  9 10  1  0
 10 11  2  0
 11 12  1  0
 12 13  2  0
  6 14  1  0
 14 15  1  0
 15 16  2  0
 15 17  1  0
 17 18  1  0
 18 19  1  0
 19 20  1  0
 20 21  1  0
 21 22  1  0
 22 23  1  0
 23 24  2  0
 23 25  1  0
 25 26  1  0
 26 27  2  0
 27 28  1  0
 28 29  2  0
 29 30  1  0
 29 31  1  0
 31 32  2  0
 31 33  1  0
 33 34  1  0
 34 35  1  1
 35 36  1  0
 36 37  2  0
 37 38  1  0
 38 39  2  0
 39 40  1  0
 40 41  2  0
 41 42  1  0
 42 43  2  0
 43 44  1  0
 44 45  2  0
 34 46  1  0
 46 47  2  0
 46 48  1  0
 48 49  1  0
 49 50  1  6
 50 51  1  0
 49 52  1  0
 52 53  2  0
 52 54  1  0
 54 55  1  0
 55 56  1  6
 56 57  1  0
 57 58  1  0
 58 59  1  0
 58 60  2  0
 55 61  1  0
 61 62  2  0
 61 63  1  0
 63 64  1  0
 64 65  1  1
 65 66  1  0
 66 67  2  0
 67 68  1  0
 68 69  2  0
 69 70  1  0
 70 71  2  0
 71 72  1  0
 72 73  2  0
 73 74  1  0
 74 75  2  0
 64 76  1  0
 76 77  2  0
 76 78  1  0
 78 79  1  0
 79 80  1  6
 80 81  2  0
 81 82  1  0
 82 83  2  0
 83 84  1  0
 84 85  2  0
 79 86  1  0
 86 87  2  0
 86 88  1  0
 27 89  1  0
 89 90  2  0
 89 91  1  0
 91 92  1  0
 92 93  1  0
 93 94  1  1
 94 95  2  0
 94 96  1  0
 96 97  1  0
 97 98  1  6
 98 99  1  0
 99100  1  0
100101  2  0
100102  1  0
 97103  1  0
103104  2  0
103105  1  0
105106  1  0
106107  1  6
107108  1  0
108109  2  0
109110  1  0
110111  2  0
111112  1  0
106113  1  0
113114  2  0
113115  1  0
115116  1  0
116117  1  0
117118  1  0
118119  1  0
119120  1  6
120121  2  0
120122  1  0
122123  1  0
123124  1  6
124125  1  0
125126  2  0
126127  1  0
127128  2  0
128129  1  0
128130  1  0
130131  2  0
123132  1  0
132133  2  0
132134  1  0
134135  1  0
135136  1  1
136137  1  0
137138  1  0
138139  1  0
139140  1  0
135141  1  0
141142  1  0
141143  2  0
 93144  1  0
144145  1  0
145146  2  0
145147  1  0
147148  1  6
148149  1  0
149150  1  0
150151  1  0
151152  1  0
152153  2  0
152154  1  0
147155  1  0
155156  1  0
156157  2  0
156158  1  0
158159  1  1
159160  1  0
160161  1  0
161162  1  0
162163  1  0
163164  2  0
163165  1  0
158166  1  0
166167  1  0
167168  2  0
167  2  1  0
 13  8  1  0
 17 88  1  1
112108  1  0
119115  1  0
131125  1  0
 30 25  2  0
 45 36  1  0
 75 66  1  0
 85 80  1  0
 44 39  1  0
 74 69  1  0
M  END
>  <molecule_chembl_id>  (78) 
CHEMBL4857709

>  <canonical_smiles>  (78) 
C[C@@H]1NC(=O)[C@@H](Cc2ccccc2)NC(=O)[C@@H]2CCCCNC(=O)c3cc(cc(c3)C(=O)N[C@H](Cc3ccc4ccccc4c3)C(=O)N[C@@H](CO)C(=O)N[C@@H](CCC(N)=O)C(=O)N[C@H](Cc3ccc4ccccc4c3)C(=O)N[C@@H](c3ccccc3)C(=O)N2)C(=O)NC[C@@H](C(=O)N[C@@H](CCC(=O)O)C(=O)N[C@@H](Cc2cnc[nH]2)C(=O)N2CCC[C@@H]2C(=O)N[C@H](Cc2ccc(O)cc2)C(=O)N[C@@H](CCCCN)C(N)=O)NC(=O)[C@H](CCCNC(=N)N)NC(=O)[C@@H](CCCNC(=N)N)NC1=O

>  <pchembl_value_mean>  (78) 
5.24

>  <inchi>  (78) 
InChI=1S/C115H143N29O24/c1-63-96(151)131-80(29-16-46-125-114(119)120)100(155)132-81(30-17-47-126-115(121)122)102(157)141-89(109(164)133-83(41-43-93(148)149)104(159)140-88(58-76-59-123-62-128-76)113(168)144-48-18-31-91(144)111(166)139-85(52-65-34-38-77(146)39-35-65)106(161)130-78(95(118)150)27-12-14-44-116)60-127-98(153)74-55-73-56-75(57-74)99(154)136-86(53-66-32-36-68-21-8-10-25-71(68)49-66)107(162)142-90(61-145)110(165)134-82(40-42-92(117)147)103(158)138-87(54-67-33-37-69-22-9-11-26-72(69)50-67)108(163)143-94(70-23-6-3-7-24-70)112(167)135-79(28-13-15-45-124-97(73)152)101(156)137-84(105(160)129-63)51-64-19-4-2-5-20-64/h2-11,19-26,32-39,49-50,55-57,59,62-63,78-91,94,145-146H,12-18,27-31,40-48,51-54,58,60-61,116H2,1H3,(H2,117,147)(H2,118,150)(H,123,128)(H,124,152)(H,127,153)(H,129,160)(H,130,161)(H,131,151)(H,132,155)(H,133,164)(H,134,165)(H,135,167)(H,136,154)(H,137,156)(H,138,158)(H,139,166)(H,140,159)(H,141,157)(H,142,162)(H,143,163)(H,148,149)(H4,119,120,125)(H4,121,122,126)/t63-,78-,79-,80+,81-,82-,83-,84+,85+,86+,87+,88-,89-,90-,91+,94-/m0/s1

$$$$

     RDKit          2D

 33 36  0  0  0  0  0  0  0  0999 V2000
    7.8107  -10.9304    0.0000 C   0  0  0  0  0  0  0  0  0  0  0  0
    7.0607   -9.6313    0.0000 C   0  0  0  0  0  0  0  0  0  0  0  0
    7.8107   -8.3323    0.0000 C   0  0  0  0  0  0  0  0  0  0  0  0
    9.3107   -8.3323    0.0000 O   0  0  0  0  0  0  0  0  0  0  0  0
    7.0607   -7.0333    0.0000 N   0  0  0  0  0  0  0  0  0  0  0  0
    5.6118   -6.6450    0.0000 C   0  0  0  0  0  0  0  0  0  0  0  0
    6.0000   -5.1962    0.0000 C   0  0  0  0  0  0  0  0  0  0  0  0
    5.2500   -3.8971    0.0000 N   0  0  0  0  0  0  0  0  0  0  0  0
    3.7500   -3.8971    0.0000 C   0  0  0  0  0  0  0  0  0  0  0  0
    3.0000   -5.1962    0.0000 O   0  0  0  0  0  0  0  0  0  0  0  0
    3.0000   -2.5981    0.0000 C   0  0  0  0  0  0  0  0  0  0  0  0
    1.5000   -2.5981    0.0000 O   0  0  0  0  0  0  0  0  0  0  0  0
    0.7500   -1.2990    0.0000 C   0  0  0  0  0  0  0  0  0  0  0  0
    1.5000    0.0000    0.0000 C   0  0  0  0  0  0  0  0  0  0  0  0
    0.7500    1.2990    0.0000 C   0  0  0  0  0  0  0  0  0  0  0  0
   -0.7500    1.2990    0.0000 C   0  0  0  0  0  0  0  0  0  0  0  0
   -1.5000    2.5981    0.0000 Br  0  0  0  0  0  0  0  0  0  0  0  0
   -1.5000    0.0000    0.0000 C   0  0  0  0  0  0  0  0  0  0  0  0
   -0.7500   -1.2990    0.0000 C   0  0  0  0  0  0  0  0  0  0  0  0
   -1.5000   -2.5981    0.0000 C   0  0  0  0  0  0  0  0  0  0  0  0
   -0.7500   -3.8971    0.0000 O   0  0  0  0  0  0  0  0  0  0  0  0
   -3.0000   -2.5981    0.0000 N   0  0  0  0  0  0  0  0  0  0  0  0
   -3.8817   -3.8116    0.0000 C   0  0  0  0  0  0  0  0  0  0  0  0
   -5.3083   -3.3481    0.0000 C   0  0  0  0  0  0  0  0  0  0  0  0
   -5.3083   -1.8481    0.0000 C   0  0  0  0  0  0  0  0  0  0  0  0
   -6.5218   -0.9664    0.0000 C   0  0  0  0  0  0  0  0  0  0  0  0
   -6.3650    0.5254    0.0000 C   0  0  0  0  0  0  0  0  0  0  0  0
   -7.5785    1.4071    0.0000 C   0  0  0  0  0  0  0  0  0  0  0  0
   -8.9488    0.7970    0.0000 C   0  0  0  0  0  0  0  0  0  0  0  0
   -9.1056   -0.6948    0.0000 C   0  0  0  0  0  0  0  0  0  0  0  0
   -7.8921   -1.5765    0.0000 C   0  0  0  0  0  0  0  0  0  0  0  0
   -3.8817   -1.3846    0.0000 C   0  0  0  0  0  0  0  0  0  0  0  0
    7.4489   -5.5844    0.0000 C   0  0  0  0  0  0  0  0  0  0  0  0
  1  2  2  0
  2  3  1  0
  3  4  2  0
  3  5  1  0
  5  6  1  0
  6  7  1  0
  7  8  1  0
  8  9  1  0
  9 10  2  0
  9 11  1  0
 11 12  1  0
 12 13  1  0
 13 14  2  0
 14 15  1  0
 15 16  2  0
 16 17  1  0
 16 18  1  0
 18 19  2  0
 19 20  1  0
 20 21  2  0
 20 22  1  0
 22 23  1  0
 23 24  1  0
 24 25  2  0
 25 26  1  0
 26 27  2  0
 27 28  1  0
 28 29  2  0
 29 30  1  0
 30 31  2  0
 25 32  1  0
  7 33  1  0
 33  5  1  0
 19 13  1  0
 32 22  1  0
 31 26  1  0
M  END
>  <molecule_chembl_id>  (79) 
CHEMBL4577812

>  <canonical_smiles>  (79) 
C=CC(=O)N1CC(NC(=O)COc2ccc(Br)cc2C(=O)N2CC=C(c3ccccc3)C2)C1

>  <pchembl_value_mean>  (79) 
5.255

>  <inchi>  (79) 
InChI=1S/C25H24BrN3O4/c1-2-24(31)29-14-20(15-29)27-23(30)16-33-22-9-8-19(26)12-21(22)25(32)28-11-10-18(13-28)17-6-4-3-5-7-17/h2-10,12,20H,1,11,13-16H2,(H,27,30)

$$$$

     RDKit          2D

 31 35  0  0  0  0  0  0  0  0999 V2000
    3.7500   -9.0933    0.0000 C   0  0  0  0  0  0  0  0  0  0  0  0
    3.0000   -7.7942    0.0000 C   0  0  0  0  0  0  0  0  0  0  0  0
    3.7500   -6.4952    0.0000 C   0  0  0  0  0  0  0  0  0  0  0  0
    5.2500   -6.4952    0.0000 O   0  0  0  0  0  0  0  0  0  0  0  0
    3.0000   -5.1962    0.0000 N   0  0  0  0  0  0  0  0  0  0  0  0
    1.5000   -5.1962    0.0000 C   0  0  0  0  0  0  0  0  0  0  0  0
    0.7500   -3.8971    0.0000 C   0  0  0  0  0  0  0  0  0  0  0  0
    1.5000   -2.5981    0.0000 N   0  0  0  0  0  0  0  0  0  0  0  0
    0.7500   -1.2990    0.0000 C   0  0  0  0  0  0  0  0  0  0  0  0
    1.5000    0.0000    0.0000 N   0  0  0  0  0  0  0  0  0  0  0  0
    0.7500    1.2990    0.0000 C   0  0  0  0  0  0  0  0  0  0  0  0
   -0.7500    1.2990    0.0000 N   0  0  0  0  0  0  0  0  0  0  0  0
   -1.5000    0.0000    0.0000 C   0  0  0  0  0  0  0  0  0  0  0  0
   -0.7500   -1.2990    0.0000 C   0  0  0  0  0  0  0  0  0  0  0  0
   -1.5000   -2.5981    0.0000 C   0  0  0  0  0  0  0  0  0  0  0  0
   -3.0000   -2.5981    0.0000 C   0  0  0  0  0  0  0  0  0  0  0  0
   -3.7500   -1.2990    0.0000 C   0  0  0  0  0  0  0  0  0  0  0  0
   -5.2500   -1.2990    0.0000 C   0  0  0  0  0  0  0  0  0  0  0  0
   -6.0000    0.0000    0.0000 C   0  0  0  0  0  0  0  0  0  0  0  0
   -5.2500    1.2990    0.0000 C   0  0  0  0  0  0  0  0  0  0  0  0
   -7.5000    0.0000    0.0000 C   0  0  0  0  0  0  0  0  0  0  0  0
   -8.2500   -1.2990    0.0000 C   0  0  0  0  0  0  0  0  0  0  0  0
   -7.5000   -2.5981    0.0000 C   0  0  0  0  0  0  0  0  0  0  0  0
   -7.9635   -4.0247    0.0000 N   0  0  0  0  0  0  0  0  0  0  0  0
   -6.7500   -4.9063    0.0000 N   0  0  0  0  0  0  0  0  0  0  0  0
   -5.5365   -4.0247    0.0000 C   0  0  0  0  0  0  0  0  0  0  0  0
   -6.0000   -2.5981    0.0000 C   0  0  0  0  0  0  0  0  0  0  0  0
   -3.0000    0.0000    0.0000 C   0  0  0  0  0  0  0  0  0  0  0  0
    3.0000   -2.5981    0.0000 C   0  0  0  0  0  0  0  0  0  0  0  0
    3.7500   -1.2990    0.0000 C   0  0  0  0  0  0  0  0  0  0  0  0
    3.7500   -3.8971    0.0000 C   0  0  0  0  0  0  0  0  0  0  0  0
  1  2  2  0
  2  3  1  0
  3  4  2  0
  3  5  1  0
  5  6  1  0
  6  7  1  0
  7  8  1  0
  8  9  1  0
  9 10  2  0
 10 11  1  0
 11 12  2  0
 12 13  1  0
 13 14  2  0
 14 15  1  0
 15 16  1  0
 16 17  1  0
 17 18  1  0
 18 19  2  0
 19 20  1  0
 19 21  1  0
 21 22  2  0
 22 23  1  0
 23 24  1  0
 24 25  1  0
 25 26  2  0
 26 27  1  0
 17 28  1  0
  8 29  1  0
 29 30  1  1
 29 31  1  0
 31  5  1  0
 14  9  1  0
 27 18  1  0
 28 13  1  0
 27 23  2  0
M  END
>  <molecule_chembl_id>  (80) 
CHEMBL4441401

>  <canonical_smiles>  (80) 
C=CC(=O)N1CCN(c2ncnc3c2CCC(c2c(C)ccc4[nH]ncc24)C3)[C@@H](C)C1

>  <pchembl_value_mean>  (80) 
5.31

>  <inchi>  (80) 
InChI=1S/C24H28N6O/c1-4-22(31)29-9-10-30(16(3)13-29)24-18-7-6-17(11-21(18)25-14-26-24)23-15(2)5-8-20-19(23)12-27-28-20/h4-5,8,12,14,16-17H,1,6-7,9-11,13H2,2-3H3,(H,27,28)/t16-,17?/m0/s1

$$$$

     RDKit          2D

 41 46  0  0  0  0  0  0  0  0999 V2000
    9.7500   -3.8971    0.0000 C   0  0  0  0  0  0  0  0  0  0  0  0
    8.2500   -3.8971    0.0000 C   0  0  0  0  0  0  0  0  0  0  0  0
    7.5000   -2.5981    0.0000 C   0  0  0  0  0  0  0  0  0  0  0  0
    8.2500   -1.2990    0.0000 O   0  0  0  0  0  0  0  0  0  0  0  0
    6.0000   -2.5981    0.0000 N   0  0  0  0  0  0  0  0  0  0  0  0
    5.2500   -3.8971    0.0000 C   0  0  0  0  0  0  0  0  0  0  0  0
    3.7500   -3.8971    0.0000 C   0  0  0  0  0  0  0  0  0  0  0  0
    3.0000   -2.5981    0.0000 N   0  0  0  0  0  0  0  0  0  0  0  0
    1.5000   -2.5981    0.0000 C   0  0  0  0  0  0  0  0  0  0  0  0
    0.7500   -3.8971    0.0000 N   0  0  0  0  0  0  0  0  0  0  0  0
   -0.7500   -3.8971    0.0000 C   0  0  0  0  0  0  0  0  0  0  0  0
   -1.5000   -5.1962    0.0000 O   0  0  0  0  0  0  0  0  0  0  0  0
   -3.0000   -5.1962    0.0000 C   0  0  0  0  0  0  0  0  0  0  0  0
   -3.7500   -6.4952    0.0000 C   0  0  0  0  0  0  0  0  0  0  0  0
   -3.1399   -7.8655    0.0000 C   0  0  0  0  0  0  0  0  0  0  0  0
   -4.2546   -8.8692    0.0000 C   0  0  0  0  0  0  0  0  0  0  0  0
   -5.5537   -8.1192    0.0000 C   0  0  0  0  0  0  0  0  0  0  0  0
   -5.2418   -6.6520    0.0000 N   0  0  0  0  0  0  0  0  0  0  0  0
   -6.2455   -5.5373    0.0000 C   0  0  0  0  0  0  0  0  0  0  0  0
   -1.5000   -2.5981    0.0000 N   0  0  0  0  0  0  0  0  0  0  0  0
   -0.7500   -1.2990    0.0000 C   0  0  0  0  0  0  0  0  0  0  0  0
    0.7500   -1.2990    0.0000 C   0  0  0  0  0  0  0  0  0  0  0  0
    1.5000    0.0000    0.0000 C   0  0  0  0  0  0  0  0  0  0  0  0
    0.7500    1.2990    0.0000 C   0  0  0  0  0  0  0  0  0  0  0  0
   -0.7500    1.2990    0.0000 N   0  0  0  0  0  0  0  0  0  0  0  0
   -1.5000    2.5981    0.0000 C   0  0  0  0  0  0  0  0  0  0  0  0
   -3.0000    2.5981    0.0000 C   0  0  0  0  0  0  0  0  0  0  0  0
   -3.7500    3.8971    0.0000 C   0  0  0  0  0  0  0  0  0  0  0  0
   -3.0000    5.1962    0.0000 C   0  0  0  0  0  0  0  0  0  0  0  0
   -1.5000    5.1962    0.0000 C   0  0  0  0  0  0  0  0  0  0  0  0
   -0.7500    6.4952    0.0000 C   0  0  0  0  0  0  0  0  0  0  0  0
    0.7500    6.4952    0.0000 C   0  0  0  0  0  0  0  0  0  0  0  0
    1.5000    5.1962    0.0000 C   0  0  0  0  0  0  0  0  0  0  0  0
    0.7500    3.8971    0.0000 C   0  0  0  0  0  0  0  0  0  0  0  0
   -0.7500    3.8971    0.0000 C   0  0  0  0  0  0  0  0  0  0  0  0
   -1.5000    0.0000    0.0000 C   0  0  0  0  0  0  0  0  0  0  0  0
    3.7500   -1.2990    0.0000 C   0  0  0  0  0  0  0  0  0  0  0  0
    3.0000   -0.0000    0.0000 C   0  0  0  0  0  0  0  0  0  0  0  0
    3.7500    1.2990    0.0000 C   0  0  0  0  0  0  0  0  0  0  0  0
    3.0000    2.5981    0.0000 O   0  0  0  0  0  0  0  0  0  0  0  0
    5.2500   -1.2990    0.0000 C   0  0  0  0  0  0  0  0  0  0  0  0
  1  2  2  0
  2  3  1  0
  3  4  2  0
  3  5  1  0
  5  6  1  0
  6  7  1  0
  7  8  1  0
  8  9  1  0
  9 10  2  0
 10 11  1  0
 11 12  1  0
 12 13  1  0
 14 13  1  6
 14 15  1  0
 15 16  1  0
 16 17  1  0
 17 18  1  0
 18 19  1  0
 11 20  2  0
 20 21  1  0
 21 22  2  0
 22 23  1  0
 23 24  1  0
 24 25  1  0
 25 26  1  0
 26 27  2  0
 27 28  1  0
 28 29  2  0
 29 30  1  0
 30 31  2  0
 31 32  1  0
 32 33  2  0
 33 34  1  0
 34 35  2  0
 25 36  1  0
  8 37  1  0
 37 38  1  0
 38 39  1  0
 39 40  1  0
 37 41  1  0
 41  5  1  0
 22  9  1  0
 35 26  1  0
 18 14  1  0
 36 21  1  0
 35 30  1  0
M  END
>  <molecule_chembl_id>  (81) 
CHEMBL4638484

>  <canonical_smiles>  (81) 
C=CC(=O)N1CCN(c2nc(OC[C@@H]3CCCN3C)nc3c2CCN(c2cccc4ccccc24)C3)C(CCO)C1

>  <pchembl_value_mean>  (81) 
5.32

>  <inchi>  (81) 
InChI=1S/C32H40N6O3/c1-3-30(40)37-17-18-38(24(20-37)14-19-39)31-27-13-16-36(29-12-6-9-23-8-4-5-11-26(23)29)21-28(27)33-32(34-31)41-22-25-10-7-15-35(25)2/h3-6,8-9,11-12,24-25,39H,1,7,10,13-22H2,2H3/t24?,25-/m0/s1

$$$$

     RDKit          2D

 40 45  0  0  0  0  0  0  0  0999 V2000
    9.7500   -3.8971    0.0000 C   0  0  0  0  0  0  0  0  0  0  0  0
    8.2500   -3.8971    0.0000 C   0  0  0  0  0  0  0  0  0  0  0  0
    7.5000   -2.5981    0.0000 C   0  0  0  0  0  0  0  0  0  0  0  0
    8.2500   -1.2990    0.0000 O   0  0  0  0  0  0  0  0  0  0  0  0
    6.0000   -2.5981    0.0000 N   0  0  0  0  0  0  0  0  0  0  0  0
    5.2500   -3.8971    0.0000 C   0  0  0  0  0  0  0  0  0  0  0  0
    3.7500   -3.8971    0.0000 C   0  0  0  0  0  0  0  0  0  0  0  0
    3.0000   -2.5981    0.0000 N   0  0  0  0  0  0  0  0  0  0  0  0
    1.5000   -2.5981    0.0000 C   0  0  0  0  0  0  0  0  0  0  0  0
    0.7500   -3.8971    0.0000 N   0  0  0  0  0  0  0  0  0  0  0  0
   -0.7500   -3.8971    0.0000 C   0  0  0  0  0  0  0  0  0  0  0  0
   -1.5000   -5.1962    0.0000 O   0  0  0  0  0  0  0  0  0  0  0  0
   -3.0000   -5.1962    0.0000 C   0  0  0  0  0  0  0  0  0  0  0  0
   -3.7500   -6.4952    0.0000 C   0  0  0  0  0  0  0  0  0  0  0  0
   -3.1399   -7.8655    0.0000 C   0  0  0  0  0  0  0  0  0  0  0  0
   -4.2546   -8.8692    0.0000 C   0  0  0  0  0  0  0  0  0  0  0  0
   -5.5537   -8.1192    0.0000 C   0  0  0  0  0  0  0  0  0  0  0  0
   -5.2418   -6.6520    0.0000 N   0  0  0  0  0  0  0  0  0  0  0  0
   -6.2455   -5.5373    0.0000 C   0  0  0  0  0  0  0  0  0  0  0  0
   -1.5000   -2.5981    0.0000 N   0  0  0  0  0  0  0  0  0  0  0  0
   -0.7500   -1.2990    0.0000 C   0  0  0  0  0  0  0  0  0  0  0  0
    0.7500   -1.2990    0.0000 C   0  0  0  0  0  0  0  0  0  0  0  0
    1.5000    0.0000    0.0000 C   0  0  0  0  0  0  0  0  0  0  0  0
    0.7500    1.2990    0.0000 C   0  0  0  0  0  0  0  0  0  0  0  0
   -0.7500    1.2990    0.0000 N   0  0  0  0  0  0  0  0  0  0  0  0
   -1.5000    2.5981    0.0000 C   0  0  0  0  0  0  0  0  0  0  0  0
   -3.0000    2.5981    0.0000 C   0  0  0  0  0  0  0  0  0  0  0  0
   -3.7500    3.8971    0.0000 C   0  0  0  0  0  0  0  0  0  0  0  0
   -3.0000    5.1962    0.0000 C   0  0  0  0  0  0  0  0  0  0  0  0
   -1.5000    5.1962    0.0000 C   0  0  0  0  0  0  0  0  0  0  0  0
   -0.7500    6.4952    0.0000 C   0  0  0  0  0  0  0  0  0  0  0  0
    0.7500    6.4952    0.0000 C   0  0  0  0  0  0  0  0  0  0  0  0
    1.5000    5.1962    0.0000 C   0  0  0  0  0  0  0  0  0  0  0  0
    0.7500    3.8971    0.0000 C   0  0  0  0  0  0  0  0  0  0  0  0
   -0.7500    3.8971    0.0000 C   0  0  0  0  0  0  0  0  0  0  0  0
   -1.5000    0.0000    0.0000 C   0  0  0  0  0  0  0  0  0  0  0  0
    3.7500   -1.2990    0.0000 C   0  0  0  0  0  0  0  0  0  0  0  0
    5.2500   -1.2990    0.0000 C   0  0  0  0  0  0  0  0  0  0  0  0
    6.0000   -0.0000    0.0000 C   0  0  0  0  0  0  0  0  0  0  0  0
    5.2500    1.2990    0.0000 O   0  0  0  0  0  0  0  0  0  0  0  0
  1  2  2  0
  2  3  1  0
  3  4  2  0
  3  5  1  0
  5  6  1  0
  6  7  1  0
  7  8  1  0
  8  9  1  0
  9 10  2  0
 10 11  1  0
 11 12  1  0
 12 13  1  0
 14 13  1  6
 14 15  1  0
 15 16  1  0
 16 17  1  0
 17 18  1  0
 18 19  1  0
 11 20  2  0
 20 21  1  0
 21 22  2  0
 22 23  1  0
 23 24  1  0
 24 25  1  0
 25 26  1  0
 26 27  2  0
 27 28  1  0
 28 29  2  0
 29 30  1  0
 30 31  2  0
 31 32  1  0
 32 33  2  0
 33 34  1  0
 34 35  2  0
 25 36  1  0
  8 37  1  0
 37 38  1  0
 38 39  1  0
 39 40  1  0
 38  5  1  0
 22  9  1  0
 35 26  1  0
 18 14  1  0
 36 21  1  0
 35 30  1  0
M  END
>  <molecule_chembl_id>  (82) 
CHEMBL4643600

>  <canonical_smiles>  (82) 
C=CC(=O)N1CCN(c2nc(OC[C@@H]3CCCN3C)nc3c2CCN(c2cccc4ccccc24)C3)CC1CO

>  <pchembl_value_mean>  (82) 
5.33

>  <inchi>  (82) 
InChI=1S/C31H38N6O3/c1-3-29(39)37-17-16-36(18-24(37)20-38)30-26-13-15-35(28-12-6-9-22-8-4-5-11-25(22)28)19-27(26)32-31(33-30)40-21-23-10-7-14-34(23)2/h3-6,8-9,11-12,23-24,38H,1,7,10,13-21H2,2H3/t23-,24?/m0/s1

$$$$

     RDKit          2D

 40 45  0  0  0  0  0  0  0  0999 V2000
    9.7500   -3.8971    0.0000 C   0  0  0  0  0  0  0  0  0  0  0  0
    8.2500   -3.8971    0.0000 C   0  0  0  0  0  0  0  0  0  0  0  0
    7.5000   -2.5981    0.0000 C   0  0  0  0  0  0  0  0  0  0  0  0
    8.2500   -1.2990    0.0000 O   0  0  0  0  0  0  0  0  0  0  0  0
    6.0000   -2.5981    0.0000 N   0  0  0  0  0  0  0  0  0  0  0  0
    5.2500   -3.8971    0.0000 C   0  0  0  0  0  0  0  0  0  0  0  0
    3.7500   -3.8971    0.0000 C   0  0  0  0  0  0  0  0  0  0  0  0
    3.0000   -2.5981    0.0000 N   0  0  0  0  0  0  0  0  0  0  0  0
    1.5000   -2.5981    0.0000 C   0  0  0  0  0  0  0  0  0  0  0  0
    0.7500   -3.8971    0.0000 N   0  0  0  0  0  0  0  0  0  0  0  0
   -0.7500   -3.8971    0.0000 C   0  0  0  0  0  0  0  0  0  0  0  0
   -1.5000   -5.1962    0.0000 O   0  0  0  0  0  0  0  0  0  0  0  0
   -3.0000   -5.1962    0.0000 C   0  0  0  0  0  0  0  0  0  0  0  0
   -3.7500   -6.4952    0.0000 C   0  0  0  0  0  0  0  0  0  0  0  0
   -3.1399   -7.8655    0.0000 C   0  0  0  0  0  0  0  0  0  0  0  0
   -4.2546   -8.8692    0.0000 C   0  0  0  0  0  0  0  0  0  0  0  0
   -5.5537   -8.1192    0.0000 C   0  0  0  0  0  0  0  0  0  0  0  0
   -5.2418   -6.6520    0.0000 N   0  0  0  0  0  0  0  0  0  0  0  0
   -6.2455   -5.5373    0.0000 C   0  0  0  0  0  0  0  0  0  0  0  0
   -1.5000   -2.5981    0.0000 N   0  0  0  0  0  0  0  0  0  0  0  0
   -0.7500   -1.2990    0.0000 C   0  0  0  0  0  0  0  0  0  0  0  0
    0.7500   -1.2990    0.0000 C   0  0  0  0  0  0  0  0  0  0  0  0
    1.5000    0.0000    0.0000 C   0  0  0  0  0  0  0  0  0  0  0  0
    0.7500    1.2990    0.0000 C   0  0  0  0  0  0  0  0  0  0  0  0
   -0.7500    1.2990    0.0000 N   0  0  0  0  0  0  0  0  0  0  0  0
   -1.5000    2.5981    0.0000 C   0  0  0  0  0  0  0  0  0  0  0  0
   -3.0000    2.5981    0.0000 C   0  0  0  0  0  0  0  0  0  0  0  0
   -3.7500    3.8971    0.0000 C   0  0  0  0  0  0  0  0  0  0  0  0
   -3.0000    5.1962    0.0000 C   0  0  0  0  0  0  0  0  0  0  0  0
   -1.5000    5.1962    0.0000 C   0  0  0  0  0  0  0  0  0  0  0  0
   -0.7500    6.4952    0.0000 C   0  0  0  0  0  0  0  0  0  0  0  0
    0.7500    6.4952    0.0000 C   0  0  0  0  0  0  0  0  0  0  0  0
    1.5000    5.1962    0.0000 C   0  0  0  0  0  0  0  0  0  0  0  0
    0.7500    3.8971    0.0000 C   0  0  0  0  0  0  0  0  0  0  0  0
   -0.7500    3.8971    0.0000 C   0  0  0  0  0  0  0  0  0  0  0  0
   -1.5000    0.0000    0.0000 C   0  0  0  0  0  0  0  0  0  0  0  0
    3.7500   -1.2990    0.0000 C   0  0  0  0  0  0  0  0  0  0  0  0
    3.0000   -0.0000    0.0000 C   0  0  0  0  0  0  0  0  0  0  0  0
    3.7500    1.2990    0.0000 O   0  0  0  0  0  0  0  0  0  0  0  0
    5.2500   -1.2990    0.0000 C   0  0  0  0  0  0  0  0  0  0  0  0
  1  2  2  0
  2  3  1  0
  3  4  2  0
  3  5  1  0
  5  6  1  0
  6  7  1  0
  7  8  1  0
  8  9  1  0
  9 10  2  0
 10 11  1  0
 11 12  1  0
 12 13  1  0
 14 13  1  6
 14 15  1  0
 15 16  1  0
 16 17  1  0
 17 18  1  0
 18 19  1  0
 11 20  2  0
 20 21  1  0
 21 22  2  0
 22 23  1  0
 23 24  1  0
 24 25  1  0
 25 26  1  0
 26 27  2  0
 27 28  1  0
 28 29  2  0
 29 30  1  0
 30 31  2  0
 31 32  1  0
 32 33  2  0
 33 34  1  0
 34 35  2  0
 25 36  1  0
  8 37  1  0
 37 38  1  0
 38 39  1  0
 37 40  1  0
 40  5  1  0
 22  9  1  0
 35 26  1  0
 18 14  1  0
 36 21  1  0
 35 30  1  0
M  END
>  <molecule_chembl_id>  (83) 
CHEMBL4649174

>  <canonical_smiles>  (83) 
C=CC(=O)N1CCN(c2nc(OC[C@@H]3CCCN3C)nc3c2CCN(c2cccc4ccccc24)C3)C(CO)C1

>  <pchembl_value_mean>  (83) 
5.34

>  <inchi>  (83) 
InChI=1S/C31H38N6O3/c1-3-29(39)36-16-17-37(24(18-36)20-38)30-26-13-15-35(28-12-6-9-22-8-4-5-11-25(22)28)19-27(26)32-31(33-30)40-21-23-10-7-14-34(23)2/h3-6,8-9,11-12,23-24,38H,1,7,10,13-21H2,2H3/t23-,24?/m0/s1

$$$$

     RDKit          2D

 36 40  0  0  0  0  0  0  0  0999 V2000
    3.7500   -9.0933    0.0000 C   0  0  0  0  0  0  0  0  0  0  0  0
    3.0000   -7.7942    0.0000 C   0  0  0  0  0  0  0  0  0  0  0  0
    3.7500   -6.4952    0.0000 C   0  0  0  0  0  0  0  0  0  0  0  0
    5.2500   -6.4952    0.0000 O   0  0  0  0  0  0  0  0  0  0  0  0
    3.0000   -5.1962    0.0000 N   0  0  0  0  0  0  0  0  0  0  0  0
    1.5000   -5.1962    0.0000 C   0  0  0  0  0  0  0  0  0  0  0  0
    0.7500   -3.8971    0.0000 C   0  0  0  0  0  0  0  0  0  0  0  0
    1.5000   -2.5981    0.0000 N   0  0  0  0  0  0  0  0  0  0  0  0
    0.7500   -1.2990    0.0000 C   0  0  0  0  0  0  0  0  0  0  0  0
    1.5000    0.0000    0.0000 N   0  0  0  0  0  0  0  0  0  0  0  0
    0.7500    1.2990    0.0000 N   0  0  0  0  0  0  0  0  0  0  0  0
   -0.7500    1.2990    0.0000 C   0  0  0  0  0  0  0  0  0  0  0  0
   -1.5000    2.5981    0.0000 C   0  0  0  0  0  0  0  0  0  0  0  0
   -0.7500    3.8971    0.0000 C   0  0  0  0  0  0  0  0  0  0  0  0
   -1.5000    5.1962    0.0000 C   0  0  0  0  0  0  0  0  0  0  0  0
   -3.0000    5.1962    0.0000 C   0  0  0  0  0  0  0  0  0  0  0  0
   -3.7500    3.8971    0.0000 C   0  0  0  0  0  0  0  0  0  0  0  0
   -3.0000    2.5981    0.0000 C   0  0  0  0  0  0  0  0  0  0  0  0
   -3.7500    1.2990    0.0000 C   0  0  0  0  0  0  0  0  0  0  0  0
   -1.5000    0.0000    0.0000 C   0  0  0  0  0  0  0  0  0  0  0  0
   -3.0000    0.0000    0.0000 C   0  0  0  0  0  0  0  0  0  0  0  0
   -3.7500   -1.2990    0.0000 C   0  0  0  0  0  0  0  0  0  0  0  0
   -5.2500   -1.2990    0.0000 C   0  0  0  0  0  0  0  0  0  0  0  0
   -6.0000    0.0000    0.0000 C   0  0  0  0  0  0  0  0  0  0  0  0
   -5.2500    1.2990    0.0000 O   0  0  0  0  0  0  0  0  0  0  0  0
   -7.5000    0.0000    0.0000 C   0  0  0  0  0  0  0  0  0  0  0  0
   -8.2500   -1.2990    0.0000 C   0  0  0  0  0  0  0  0  0  0  0  0
   -7.5000   -2.5981    0.0000 C   0  0  0  0  0  0  0  0  0  0  0  0
   -6.0000   -2.5981    0.0000 C   0  0  0  0  0  0  0  0  0  0  0  0
   -5.2500   -3.8971    0.0000 F   0  0  0  0  0  0  0  0  0  0  0  0
   -3.0000   -2.5981    0.0000 C   0  0  0  0  0  0  0  0  0  0  0  0
   -3.7500   -3.8971    0.0000 Cl  0  0  0  0  0  0  0  0  0  0  0  0
   -1.5000   -2.5981    0.0000 C   0  0  0  0  0  0  0  0  0  0  0  0
   -0.7500   -1.2990    0.0000 C   0  0  0  0  0  0  0  0  0  0  0  0
    3.0000   -2.5981    0.0000 C   0  0  0  0  0  0  0  0  0  0  0  0
    3.7500   -3.8971    0.0000 C   0  0  0  0  0  0  0  0  0  0  0  0
  1  2  2  0
  2  3  1  0
  3  4  2  0
  3  5  1  0
  5  6  1  0
  6  7  1  0
  7  8  1  0
  8  9  1  0
  9 10  2  0
 10 11  1  0
 11 12  2  0
 12 13  1  0
 13 14  2  0
 14 15  1  0
 15 16  2  0
 16 17  1  0
 17 18  2  0
 18 19  1  0
 12 20  1  0
 20 21  2  0
 21 22  1  0
 22 23  1  0
 23 24  2  0
 24 25  1  0
 24 26  1  0
 26 27  2  0
 27 28  1  0
 28 29  2  0
 29 30  1  0
 22 31  2  0
 31 32  1  0
 31 33  1  0
 33 34  2  0
  8 35  1  0
 35 36  1  0
 36  5  1  0
 34  9  1  0
 18 13  1  0
 34 20  1  0
 29 23  1  0
M  END
>  <molecule_chembl_id>  (84) 
CHEMBL4476789

>  <canonical_smiles>  (84) 
C=CC(=O)N1CCN(c2nnc(-c3ccccc3C)c3cc(-c4c(O)cccc4F)c(Cl)cc23)CC1

>  <pchembl_value_mean>  (84) 
5.36

>  <inchi>  (84) 
InChI=1S/C28H24ClFN4O2/c1-3-25(36)33-11-13-34(14-12-33)28-20-16-22(29)21(26-23(30)9-6-10-24(26)35)15-19(20)27(31-32-28)18-8-5-4-7-17(18)2/h3-10,15-16,35H,1,11-14H2,2H3

$$$$

     RDKit          2D

 38 43  0  0  0  0  0  0  0  0999 V2000
    9.7500   -3.8971    0.0000 C   0  0  0  0  0  0  0  0  0  0  0  0
    8.2500   -3.8971    0.0000 C   0  0  0  0  0  0  0  0  0  0  0  0
    7.5000   -2.5981    0.0000 C   0  0  0  0  0  0  0  0  0  0  0  0
    8.2500   -1.2990    0.0000 O   0  0  0  0  0  0  0  0  0  0  0  0
    6.0000   -2.5981    0.0000 N   0  0  0  0  0  0  0  0  0  0  0  0
    5.2500   -3.8971    0.0000 C   0  0  0  0  0  0  0  0  0  0  0  0
    3.7500   -3.8971    0.0000 C   0  0  0  0  0  0  0  0  0  0  0  0
    3.0000   -2.5981    0.0000 N   0  0  0  0  0  0  0  0  0  0  0  0
    1.5000   -2.5981    0.0000 C   0  0  0  0  0  0  0  0  0  0  0  0
    0.7500   -3.8971    0.0000 N   0  0  0  0  0  0  0  0  0  0  0  0
   -0.7500   -3.8971    0.0000 C   0  0  0  0  0  0  0  0  0  0  0  0
   -1.5000   -5.1962    0.0000 O   0  0  0  0  0  0  0  0  0  0  0  0
   -3.0000   -5.1962    0.0000 C   0  0  0  0  0  0  0  0  0  0  0  0
   -3.7500   -6.4952    0.0000 C   0  0  0  0  0  0  0  0  0  0  0  0
   -3.1399   -7.8655    0.0000 C   0  0  0  0  0  0  0  0  0  0  0  0
   -4.2546   -8.8692    0.0000 C   0  0  0  0  0  0  0  0  0  0  0  0
   -5.5537   -8.1192    0.0000 C   0  0  0  0  0  0  0  0  0  0  0  0
   -5.2418   -6.6520    0.0000 N   0  0  0  0  0  0  0  0  0  0  0  0
   -6.2455   -5.5373    0.0000 C   0  0  0  0  0  0  0  0  0  0  0  0
   -1.5000   -2.5981    0.0000 N   0  0  0  0  0  0  0  0  0  0  0  0
   -0.7500   -1.2990    0.0000 C   0  0  0  0  0  0  0  0  0  0  0  0
    0.7500   -1.2990    0.0000 C   0  0  0  0  0  0  0  0  0  0  0  0
    1.5000    0.0000    0.0000 C   0  0  0  0  0  0  0  0  0  0  0  0
    0.7500    1.2990    0.0000 C   0  0  0  0  0  0  0  0  0  0  0  0
   -0.7500    1.2990    0.0000 N   0  0  0  0  0  0  0  0  0  0  0  0
   -1.5000    2.5981    0.0000 C   0  0  0  0  0  0  0  0  0  0  0  0
   -3.0000    2.5981    0.0000 C   0  0  0  0  0  0  0  0  0  0  0  0
   -3.7500    3.8971    0.0000 C   0  0  0  0  0  0  0  0  0  0  0  0
   -3.0000    5.1962    0.0000 C   0  0  0  0  0  0  0  0  0  0  0  0
   -1.5000    5.1962    0.0000 C   0  0  0  0  0  0  0  0  0  0  0  0
   -0.7500    6.4952    0.0000 C   0  0  0  0  0  0  0  0  0  0  0  0
    0.7500    6.4952    0.0000 C   0  0  0  0  0  0  0  0  0  0  0  0
    1.5000    5.1962    0.0000 C   0  0  0  0  0  0  0  0  0  0  0  0
    0.7500    3.8971    0.0000 C   0  0  0  0  0  0  0  0  0  0  0  0
   -0.7500    3.8971    0.0000 C   0  0  0  0  0  0  0  0  0  0  0  0
   -1.5000    0.0000    0.0000 C   0  0  0  0  0  0  0  0  0  0  0  0
    3.7500   -1.2990    0.0000 C   0  0  0  0  0  0  0  0  0  0  0  0
    5.2500   -1.2990    0.0000 C   0  0  0  0  0  0  0  0  0  0  0  0
  1  2  2  0
  2  3  1  0
  3  4  2  0
  3  5  1  0
  5  6  1  0
  6  7  1  0
  7  8  1  0
  8  9  1  0
  9 10  2  0
 10 11  1  0
 11 12  1  0
 12 13  1  0
 14 13  1  6
 14 15  1  0
 15 16  1  0
 16 17  1  0
 17 18  1  0
 18 19  1  0
 11 20  2  0
 20 21  1  0
 21 22  2  0
 22 23  1  0
 23 24  1  0
 24 25  1  0
 25 26  1  0
 26 27  2  0
 27 28  1  0
 28 29  2  0
 29 30  1  0
 30 31  2  0
 31 32  1  0
 32 33  2  0
 33 34  1  0
 34 35  2  0
 25 36  1  0
  8 37  1  0
 37 38  1  0
 38  5  1  0
 22  9  1  0
 35 26  1  0
 18 14  1  0
 36 21  1  0
 35 30  1  0
M  END
>  <molecule_chembl_id>  (85) 
CHEMBL4647242

>  <canonical_smiles>  (85) 
C=CC(=O)N1CCN(c2nc(OC[C@@H]3CCCN3C)nc3c2CCN(c2cccc4ccccc24)C3)CC1

>  <pchembl_value_mean>  (85) 
5.36

>  <inchi>  (85) 
InChI=1S/C30H36N6O2/c1-3-28(37)34-16-18-35(19-17-34)29-25-13-15-36(27-12-6-9-22-8-4-5-11-24(22)27)20-26(25)31-30(32-29)38-21-23-10-7-14-33(23)2/h3-6,8-9,11-12,23H,1,7,10,13-21H2,2H3/t23-/m0/s1

$$$$

     RDKit          2D

 31 35  0  0  0  0  0  0  0  0999 V2000
    5.2500   -1.2990    0.0000 C   0  0  0  0  0  0  0  0  0  0  0  0
    3.7500   -1.2990    0.0000 C   0  0  0  0  0  0  0  0  0  0  0  0
    3.0000    0.0000    0.0000 C   0  0  0  0  0  0  0  0  0  0  0  0
    3.7500    1.2990    0.0000 O   0  0  0  0  0  0  0  0  0  0  0  0
    1.5000    0.0000    0.0000 N   0  0  0  0  0  0  0  0  0  0  0  0
    0.7500   -1.2990    0.0000 C   0  0  0  0  0  0  0  0  0  0  0  0
   -0.7500   -1.2990    0.0000 C   0  0  0  0  0  0  0  0  0  0  0  0
   -1.5000    0.0000    0.0000 N   0  0  0  0  0  0  0  0  0  0  0  0
   -2.9832   -0.2236    0.0000 C   0  0  0  0  0  0  0  0  0  0  0  0
   -3.4254   -1.6569    0.0000 O   0  0  0  0  0  0  0  0  0  0  0  0
   -4.0828    0.7967    0.0000 C   0  0  0  0  0  0  0  0  0  0  0  0
   -5.4343    0.1459    0.0000 C   0  0  0  0  0  0  0  0  0  0  0  0
   -6.6736    0.9909    0.0000 C   0  0  0  0  0  0  0  0  0  0  0  0
   -6.5615    2.4867    0.0000 C   0  0  0  0  0  0  0  0  0  0  0  0
   -7.8009    3.3316    0.0000 C   0  0  0  0  0  0  0  0  0  0  0  0
   -7.6888    4.8274    0.0000 C   0  0  0  0  0  0  0  0  0  0  0  0
   -6.3374    5.4783    0.0000 C   0  0  0  0  0  0  0  0  0  0  0  0
   -8.9282    5.6724    0.0000 C   0  0  0  0  0  0  0  0  0  0  0  0
  -10.2796    5.0216    0.0000 C   0  0  0  0  0  0  0  0  0  0  0  0
  -10.3917    3.5258    0.0000 C   0  0  0  0  0  0  0  0  0  0  0  0
  -11.5783    2.6082    0.0000 N   0  0  0  0  0  0  0  0  0  0  0  0
  -11.0723    1.1961    0.0000 N   0  0  0  0  0  0  0  0  0  0  0  0
   -9.5730    1.2410    0.0000 C   0  0  0  0  0  0  0  0  0  0  0  0
   -9.1524    2.6808    0.0000 C   0  0  0  0  0  0  0  0  0  0  0  0
   -5.2101    3.1375    0.0000 C   0  0  0  0  0  0  0  0  0  0  0  0
   -5.0980    4.6333    0.0000 Cl  0  0  0  0  0  0  0  0  0  0  0  0
   -3.9707    2.2925    0.0000 C   0  0  0  0  0  0  0  0  0  0  0  0
   -2.7314    3.1375    0.0000 O   0  0  0  0  0  0  0  0  0  0  0  0
   -1.2980    2.6953    0.0000 C   0  0  0  0  0  0  0  0  0  0  0  0
   -0.7500    1.2990    0.0000 C   0  0  0  0  0  0  0  0  0  0  0  0
    0.7500    1.2990    0.0000 C   0  0  0  0  0  0  0  0  0  0  0  0
  1  2  2  0
  2  3  1  0
  3  4  2  0
  3  5  1  0
  5  6  1  0
  6  7  1  0
  7  8  1  0
  8  9  1  0
  9 10  2  0
  9 11  1  0
 11 12  2  0
 12 13  1  0
 13 14  2  0
 14 15  1  0
 15 16  2  0
 16 17  1  0
 16 18  1  0
 18 19  2  0
 19 20  1  0
 20 21  1  0
 21 22  1  0
 22 23  2  0
 23 24  1  0
 14 25  1  0
 25 26  1  0
 25 27  2  0
 27 28  1  0
 28 29  1  0
 30 29  1  6
 30 31  1  0
 31  5  1  0
 30  8  1  0
 27 11  1  0
 24 15  1  0
 24 20  2  0
M  END
>  <molecule_chembl_id>  (86) 
CHEMBL5418874

>  <canonical_smiles>  (86) 
C=CC(=O)N1CCN2C(=O)c3ccc(-c4c(C)ccc5[nH]ncc45)c(Cl)c3OC[C@@H]2C1

>  <pchembl_value_mean>  (86) 
5.37

>  <inchi>  (86) 
InChI=1S/C23H21ClN4O3/c1-3-19(29)27-8-9-28-14(11-27)12-31-22-16(23(28)30)6-5-15(21(22)24)20-13(2)4-7-18-17(20)10-25-26-18/h3-7,10,14H,1,8-9,11-12H2,2H3,(H,25,26)/t14-/m0/s1

$$$$

     RDKit          2D

 59 66  0  0  0  0  0  0  0  0999 V2000
    5.1731   -3.9415    0.0000 C   0  0  0  0  0  0  0  0  0  0  0  0
    3.8740   -4.6915    0.0000 C   0  0  0  0  0  0  0  0  0  0  0  0
    3.7172   -6.1833    0.0000 C   0  0  0  0  0  0  0  0  0  0  0  0
    2.2500   -6.4952    0.0000 N   0  0  0  0  0  0  0  0  0  0  0  0
    1.2463   -7.6099    0.0000 C   0  0  0  0  0  0  0  0  0  0  0  0
   -0.1240   -6.9998    0.0000 C   0  0  0  0  0  0  0  0  0  0  0  0
    0.0328   -5.5080    0.0000 C   0  0  0  0  0  0  0  0  0  0  0  0
    1.5000   -5.1962    0.0000 C   0  0  0  0  0  0  0  0  0  0  0  0
    0.7500   -3.8971    0.0000 C   0  0  0  0  0  0  0  0  0  0  0  0
    1.5000   -2.5981    0.0000 O   0  0  0  0  0  0  0  0  0  0  0  0
    0.7500   -1.2990    0.0000 C   0  0  0  0  0  0  0  0  0  0  0  0
    1.5000    0.0000    0.0000 N   0  0  0  0  0  0  0  0  0  0  0  0
    0.7500    1.2990    0.0000 C   0  0  0  0  0  0  0  0  0  0  0  0
    1.5000    2.5981    0.0000 N   0  0  0  0  0  0  0  0  0  0  0  0
    3.0000    2.5981    0.0000 C   0  0  0  0  0  0  0  0  0  0  0  0
    3.7500    3.8971    0.0000 C   0  0  0  0  0  0  0  0  0  0  0  0
    3.0000    5.1962    0.0000 N   0  0  0  0  0  0  0  0  0  0  0  0
    3.7500    6.4952    0.0000 C   0  0  0  0  0  0  0  0  0  0  0  0
    3.0000    7.7942    0.0000 O   0  0  0  0  0  0  0  0  0  0  0  0
    5.2500    6.4952    0.0000 C   0  0  0  0  0  0  0  0  0  0  0  0
    6.0000    7.7942    0.0000 C   0  0  0  0  0  0  0  0  0  0  0  0
    7.5000    7.7942    0.0000 C   0  0  0  0  0  0  0  0  0  0  0  0
    8.2500    6.4952    0.0000 C   0  0  0  0  0  0  0  0  0  0  0  0
    9.7500    6.4952    0.0000 C   0  0  0  0  0  0  0  0  0  0  0  0
   10.5000    5.1962    0.0000 C   0  0  0  0  0  0  0  0  0  0  0  0
    9.7500    3.8971    0.0000 N   0  0  0  0  0  0  0  0  0  0  0  0
    8.2500    3.8971    0.0000 C   0  0  0  0  0  0  0  0  0  0  0  0
    7.5000    2.5981    0.0000 C   0  0  0  0  0  0  0  0  0  0  0  0
    8.2500    1.2990    0.0000 O   0  0  0  0  0  0  0  0  0  0  0  0
    9.7500    1.2990    0.0000 C   0  0  0  0  0  0  0  0  0  0  0  0
   10.5000    2.5981    0.0000 C   0  0  0  0  0  0  0  0  0  0  0  0
   10.5000    7.7942    0.0000 C   0  0  0  0  0  0  0  0  0  0  0  0
    9.7500    9.0933    0.0000 C   0  0  0  0  0  0  0  0  0  0  0  0
    8.2500    9.0933    0.0000 N   0  0  0  0  0  0  0  0  0  0  0  0
    1.5000    5.1962    0.0000 C   0  0  0  0  0  0  0  0  0  0  0  0
    0.7500    3.8971    0.0000 C   0  0  0  0  0  0  0  0  0  0  0  0
   -0.7500    3.8971    0.0000 C   0  0  0  0  0  0  0  0  0  0  0  0
   -0.7500    1.2990    0.0000 C   0  0  0  0  0  0  0  0  0  0  0  0
   -1.5000    2.5981    0.0000 C   0  0  0  0  0  0  0  0  0  0  0  0
   -3.0000    2.5981    0.0000 C   0  0  0  0  0  0  0  0  0  0  0  0
   -3.3845    3.5040    0.0000 Cl  0  0  0  0  0  0  0  0  0  0  0  0
   -3.7500    1.2990    0.0000 C   0  0  0  0  0  0  0  0  0  0  0  0
   -5.2500    1.2990    0.0000 C   0  0  0  0  0  0  0  0  0  0  0  0
   -6.0000    0.0000    0.0000 N   0  0  0  0  0  0  0  0  0  0  0  0
   -7.5000    0.0000    0.0000 C   0  0  0  0  0  0  0  0  0  0  0  0
   -8.2500   -1.2990    0.0000 N   0  0  0  0  0  0  0  0  0  0  0  0
   -8.2500    1.2990    0.0000 C   0  0  0  0  0  0  0  0  0  0  0  0
   -7.5000    2.5981    0.0000 C   0  0  0  0  0  0  0  0  0  0  0  0
   -8.2500    3.8971    0.0000 C   0  0  0  0  0  0  0  0  0  0  0  0
   -6.0000    2.5981    0.0000 C   0  0  0  0  0  0  0  0  0  0  0  0
   -5.2500    3.8971    0.0000 C   0  0  0  0  0  0  0  0  0  0  0  0
   -4.5000    5.1962    0.0000 F   0  0  0  0  0  0  0  0  0  0  0  0
   -6.5490    4.6471    0.0000 F   0  0  0  0  0  0  0  0  0  0  0  0
   -4.3441    3.5126    0.0000 F   0  0  0  0  0  0  0  0  0  0  0  0
   -3.0000    0.0000    0.0000 C   0  0  0  0  0  0  0  0  0  0  0  0
   -3.7500   -1.2990    0.0000 F   0  0  0  0  0  0  0  0  0  0  0  0
   -1.5000    0.0000    0.0000 C   0  0  0  0  0  0  0  0  0  0  0  0
   -0.7500   -1.2990    0.0000 N   0  0  0  0  0  0  0  0  0  0  0  0
    2.5037   -4.0814    0.0000 C   0  0  0  0  0  0  0  0  0  0  0  0
  1  2  2  0
  2  3  1  0
  3  4  1  0
  4  5  1  0
  5  6  1  0
  6  7  1  0
  7  8  1  0
  8  9  1  6
  9 10  1  0
 10 11  1  0
 11 12  2  0
 12 13  1  0
 13 14  1  0
 14 15  1  0
 15 16  1  0
 16 17  1  0
 17 18  1  0
 18 19  2  0
 18 20  1  0
 20 21  2  0
 21 22  1  0
 22 23  2  0
 23 24  1  0
 24 25  1  0
 25 26  1  0
 26 27  1  0
 27 28  1  0
 28 29  1  0
 29 30  1  0
 30 31  1  0
 24 32  2  0
 32 33  1  0
 33 34  2  0
 17 35  1  0
 35 36  1  0
 36 37  1  1
 13 38  2  0
 38 39  1  0
 39 40  2  0
 40 41  1  0
 40 42  1  0
 42 43  1  0
 43 44  2  0
 44 45  1  0
 45 46  1  0
 45 47  2  0
 47 48  1  0
 48 49  1  0
 48 50  2  0
 50 51  1  0
 51 52  1  0
 51 53  1  0
 51 54  1  0
 42 55  2  0
 55 56  1  0
 55 57  1  0
 57 58  2  0
  8 59  1  0
 59  2  1  0
  8  4  1  0
 58 11  1  0
 36 14  1  0
 57 38  1  0
 34 22  1  0
 50 43  1  0
 31 26  1  0
M  END
>  <molecule_chembl_id>  (87) 
CHEMBL5406019

>  <canonical_smiles>  (87) 
C=C1CN2CCC[C@@]2(COc2nc(N3CCN(C(=O)/C=C/c4cc(CN5CCOCC5)ccn4)C[C@@H]3C)c3cc(Cl)c(-c4nc(N)cc(C)c4C(F)(F)F)c(F)c3n2)C1

>  <pchembl_value_mean>  (87) 
5.39

>  <inchi>  (87) 
InChI=1S/C42H46ClF4N9O3/c1-25-20-41(8-4-10-55(41)21-25)24-59-40-51-37-30(19-31(43)34(36(37)44)38-35(42(45,46)47)26(2)17-32(48)50-38)39(52-40)56-12-11-54(22-27(56)3)33(57)6-5-29-18-28(7-9-49-29)23-53-13-15-58-16-14-53/h5-7,9,17-19,27H,1,4,8,10-16,20-24H2,2-3H3,(H2,48,50)/b6-5+/t27-,41-/m0/s1

$$$$

     RDKit          2D

 30 34  0  0  0  0  0  0  0  0999 V2000
  -12.1677   -7.0526    0.0000 C   0  0  0  0  0  0  0  0  0  0  0  0
  -11.2860   -5.8390    0.0000 C   0  0  0  0  0  0  0  0  0  0  0  0
   -9.7942   -5.9958    0.0000 C   0  0  0  0  0  0  0  0  0  0  0  0
   -9.1841   -7.3662    0.0000 O   0  0  0  0  0  0  0  0  0  0  0  0
   -8.9126   -4.7823    0.0000 N   0  0  0  0  0  0  0  0  0  0  0  0
   -9.1472   -3.3008    0.0000 C   0  0  0  0  0  0  0  0  0  0  0  0
   -7.6657   -3.0661    0.0000 C   0  0  0  0  0  0  0  0  0  0  0  0
   -6.1841   -2.8315    0.0000 C   0  0  0  0  0  0  0  0  0  0  0  0
   -6.4188   -1.3499    0.0000 C   0  0  0  0  0  0  0  0  0  0  0  0
   -5.5371   -0.1364    0.0000 N   0  0  0  0  0  0  0  0  0  0  0  0
   -6.0006    1.2902    0.0000 N   0  0  0  0  0  0  0  0  0  0  0  0
   -4.7871    2.1718    0.0000 C   0  0  0  0  0  0  0  0  0  0  0  0
   -4.7871    3.6718    0.0000 C   0  0  0  0  0  0  0  0  0  0  0  0
   -6.0862    4.4218    0.0000 C   0  0  0  0  0  0  0  0  0  0  0  0
   -3.4881    4.4218    0.0000 C   0  0  0  0  0  0  0  0  0  0  0  0
   -3.5736    1.2902    0.0000 C   0  0  0  0  0  0  0  0  0  0  0  0
   -2.1470    1.7537    0.0000 C   0  0  0  0  0  0  0  0  0  0  0  0
   -1.0323    0.7500    0.0000 C   0  0  0  0  0  0  0  0  0  0  0  0
   -1.3442   -0.7172    0.0000 C   0  0  0  0  0  0  0  0  0  0  0  0
    0.3943    1.2135    0.0000 C   0  0  0  0  0  0  0  0  0  0  0  0
    0.7062    2.6807    0.0000 C   0  0  0  0  0  0  0  0  0  0  0  0
   -0.4086    3.6844    0.0000 C   0  0  0  0  0  0  0  0  0  0  0  0
   -0.4086    5.1844    0.0000 N   0  0  0  0  0  0  0  0  0  0  0  0
   -1.8351    5.6480    0.0000 N   0  0  0  0  0  0  0  0  0  0  0  0
   -2.7168    4.4344    0.0000 C   0  0  0  0  0  0  0  0  0  0  0  0
   -1.8351    3.2209    0.0000 C   0  0  0  0  0  0  0  0  0  0  0  0
   -4.0371   -0.1364    0.0000 C   0  0  0  0  0  0  0  0  0  0  0  0
   -3.1554   -1.3499    0.0000 C   0  0  0  0  0  0  0  0  0  0  0  0
   -7.9003   -1.5846    0.0000 C   0  0  0  0  0  0  0  0  0  0  0  0
   -7.4310   -4.5477    0.0000 C   0  0  0  0  0  0  0  0  0  0  0  0
  1  2  2  0
  2  3  1  0
  3  4  2  0
  3  5  1  0
  5  6  1  0
  6  7  1  0
  7  8  1  0
  8  9  1  0
  9 10  1  0
 10 11  1  0
 11 12  2  0
 12 13  1  0
 13 14  1  0
 13 15  1  0
 12 16  1  0
 16 17  1  0
 17 18  2  0
 18 19  1  0
 18 20  1  0
 20 21  2  0
 21 22  1  0
 22 23  1  0
 23 24  1  0
 24 25  2  0
 25 26  1  0
 16 27  2  0
 27 28  1  0
  9 29  1  0
  7 30  1  0
 30  5  1  0
 29  7  1  0
 27 10  1  0
 26 17  1  0
 26 22  2  0
M  END
>  <molecule_chembl_id>  (88) 
CHEMBL5283602

>  <canonical_smiles>  (88) 
C=CC(=O)N1CC2(CC(n3nc(C(C)C)c(-c4c(C)ccc5[nH]ncc45)c3C)C2)C1

>  <pchembl_value_mean>  (88) 
5.41

>  <inchi>  (88) 
InChI=1S/C24H29N5O/c1-6-20(30)28-12-24(13-28)9-17(10-24)29-16(5)22(23(27-29)14(2)3)21-15(4)7-8-19-18(21)11-25-26-19/h6-8,11,14,17H,1,9-10,12-13H2,2-5H3,(H,25,26)

$$$$

     RDKit          2D

 36 40  0  0  0  0  0  0  0  0999 V2000
    3.7500   -9.0933    0.0000 C   0  0  0  0  0  0  0  0  0  0  0  0
    3.0000   -7.7942    0.0000 C   0  0  0  0  0  0  0  0  0  0  0  0
    3.7500   -6.4952    0.0000 C   0  0  0  0  0  0  0  0  0  0  0  0
    5.2500   -6.4952    0.0000 O   0  0  0  0  0  0  0  0  0  0  0  0
    3.0000   -5.1962    0.0000 N   0  0  0  0  0  0  0  0  0  0  0  0
    1.5000   -5.1962    0.0000 C   0  0  0  0  0  0  0  0  0  0  0  0
    0.7500   -3.8971    0.0000 C   0  0  0  0  0  0  0  0  0  0  0  0
    1.5000   -2.5981    0.0000 N   0  0  0  0  0  0  0  0  0  0  0  0
    0.7500   -1.2990    0.0000 C   0  0  0  0  0  0  0  0  0  0  0  0
    1.5000    0.0000    0.0000 N   0  0  0  0  0  0  0  0  0  0  0  0
    0.7500    1.2990    0.0000 N   0  0  0  0  0  0  0  0  0  0  0  0
   -0.7500    1.2990    0.0000 C   0  0  0  0  0  0  0  0  0  0  0  0
   -1.5000    2.5981    0.0000 C   0  0  0  0  0  0  0  0  0  0  0  0
   -0.7500    3.8971    0.0000 C   0  0  0  0  0  0  0  0  0  0  0  0
   -1.5000    5.1962    0.0000 C   0  0  0  0  0  0  0  0  0  0  0  0
   -3.0000    5.1962    0.0000 C   0  0  0  0  0  0  0  0  0  0  0  0
   -3.7500    3.8971    0.0000 C   0  0  0  0  0  0  0  0  0  0  0  0
   -3.0000    2.5981    0.0000 C   0  0  0  0  0  0  0  0  0  0  0  0
   -3.7500    1.2990    0.0000 Cl  0  0  0  0  0  0  0  0  0  0  0  0
   -1.5000    0.0000    0.0000 C   0  0  0  0  0  0  0  0  0  0  0  0
   -3.0000    0.0000    0.0000 C   0  0  0  0  0  0  0  0  0  0  0  0
   -3.7500   -1.2990    0.0000 C   0  0  0  0  0  0  0  0  0  0  0  0
   -5.2500   -1.2990    0.0000 C   0  0  0  0  0  0  0  0  0  0  0  0
   -6.0000    0.0000    0.0000 C   0  0  0  0  0  0  0  0  0  0  0  0
   -5.2500    1.2990    0.0000 O   0  0  0  0  0  0  0  0  0  0  0  0
   -7.5000    0.0000    0.0000 C   0  0  0  0  0  0  0  0  0  0  0  0
   -8.2500   -1.2990    0.0000 C   0  0  0  0  0  0  0  0  0  0  0  0
   -7.5000   -2.5981    0.0000 C   0  0  0  0  0  0  0  0  0  0  0  0
   -6.0000   -2.5981    0.0000 C   0  0  0  0  0  0  0  0  0  0  0  0
   -5.2500   -3.8971    0.0000 F   0  0  0  0  0  0  0  0  0  0  0  0
   -3.0000   -2.5981    0.0000 C   0  0  0  0  0  0  0  0  0  0  0  0
   -3.7500   -3.8971    0.0000 Cl  0  0  0  0  0  0  0  0  0  0  0  0
   -1.5000   -2.5981    0.0000 C   0  0  0  0  0  0  0  0  0  0  0  0
   -0.7500   -1.2990    0.0000 C   0  0  0  0  0  0  0  0  0  0  0  0
    3.0000   -2.5981    0.0000 C   0  0  0  0  0  0  0  0  0  0  0  0
    3.7500   -3.8971    0.0000 C   0  0  0  0  0  0  0  0  0  0  0  0
  1  2  2  0
  2  3  1  0
  3  4  2  0
  3  5  1  0
  5  6  1  0
  6  7  1  0
  7  8  1  0
  8  9  1  0
  9 10  2  0
 10 11  1  0
 11 12  2  0
 12 13  1  0
 13 14  2  0
 14 15  1  0
 15 16  2  0
 16 17  1  0
 17 18  2  0
 18 19  1  0
 12 20  1  0
 20 21  2  0
 21 22  1  0
 22 23  1  0
 23 24  2  0
 24 25  1  0
 24 26  1  0
 26 27  2  0
 27 28  1  0
 28 29  2  0
 29 30  1  0
 22 31  2  0
 31 32  1  0
 31 33  1  0
 33 34  2  0
  8 35  1  0
 35 36  1  0
 36  5  1  0
 34  9  1  0
 18 13  1  0
 34 20  1  0
 29 23  1  0
M  END
>  <molecule_chembl_id>  (89) 
CHEMBL4514914

>  <canonical_smiles>  (89) 
C=CC(=O)N1CCN(c2nnc(-c3ccccc3Cl)c3cc(-c4c(O)cccc4F)c(Cl)cc23)CC1

>  <pchembl_value_mean>  (89) 
5.45

>  <inchi>  (89) 
InChI=1S/C27H21Cl2FN4O2/c1-2-24(36)33-10-12-34(13-11-33)27-18-15-21(29)19(25-22(30)8-5-9-23(25)35)14-17(18)26(31-32-27)16-6-3-4-7-20(16)28/h2-9,14-15,35H,1,10-13H2

$$$$

     RDKit          2D

 40 42  0  0  0  0  0  0  0  0999 V2000
  -14.7224   -6.0000    0.0000 C   0  0  0  0  0  0  0  0  0  0  0  0
  -13.4234   -5.2500    0.0000 C   0  0  0  0  0  0  0  0  0  0  0  0
  -13.4234   -3.7500    0.0000 C   0  0  0  0  0  0  0  0  0  0  0  0
  -12.1244   -3.0000    0.0000 C   0  0  0  0  0  0  0  0  0  0  0  0
  -12.1244   -1.5000    0.0000 C   0  0  0  0  0  0  0  0  0  0  0  0
  -13.4234   -0.7500    0.0000 C   0  0  0  0  0  0  0  0  0  0  0  0
  -10.8253   -0.7500    0.0000 C   0  0  0  0  0  0  0  0  0  0  0  0
   -9.5263   -1.5000    0.0000 C   0  0  0  0  0  0  0  0  0  0  0  0
   -9.5263   -3.0000    0.0000 C   0  0  0  0  0  0  0  0  0  0  0  0
   -8.2272   -0.7500    0.0000 C   0  0  0  0  0  0  0  0  0  0  0  0
   -6.9282   -1.5000    0.0000 C   0  0  0  0  0  0  0  0  0  0  0  0
   -6.9282   -3.0000    0.0000 C   0  0  0  0  0  0  0  0  0  0  0  0
   -5.6292   -0.7500    0.0000 C   0  0  0  0  0  0  0  0  0  0  0  0
   -5.6292    0.7500    0.0000 O   0  0  0  0  0  0  0  0  0  0  0  0
   -4.3301   -1.5000    0.0000 N   0  0  0  0  0  0  0  0  0  0  0  0
   -3.0311   -0.7500    0.0000 C   0  0  0  0  0  0  0  0  0  0  0  0
   -3.0311    0.7500    0.0000 C   0  0  0  0  0  0  0  0  0  0  0  0
   -1.7321    1.5000    0.0000 C   0  0  0  0  0  0  0  0  0  0  0  0
   -0.7679    2.6491    0.0000 O   0  0  0  0  0  0  0  0  0  0  0  0
   -2.6962    2.6491    0.0000 C   0  0  0  0  0  0  0  0  0  0  0  0
   -2.1832    4.0586    0.0000 C   0  0  0  0  0  0  0  0  0  0  0  0
   -3.1474    5.2077    0.0000 C   0  0  0  0  0  0  0  0  0  0  0  0
   -2.6344    6.6172    0.0000 C   0  0  0  0  0  0  0  0  0  0  0  0
   -3.5985    7.7663    0.0000 C   0  0  0  0  0  0  0  0  0  0  0  0
   -3.0855    9.1758    0.0000 C   0  0  0  0  0  0  0  0  0  0  0  0
   -4.0497   10.3249    0.0000 C   0  0  0  0  0  0  0  0  0  0  0  0
   -5.5269   10.0644    0.0000 O   0  0  0  0  0  0  0  0  0  0  0  0
   -3.5367   11.7344    0.0000 N   0  0  0  0  0  0  0  0  0  0  0  0
   -4.5008   12.8835    0.0000 C   0  0  0  0  0  0  0  0  0  0  0  0
   -5.9972   12.7789    0.0000 C   0  0  0  0  0  0  0  0  0  0  0  0
   -6.7921   11.5068    0.0000 O   0  0  0  0  0  0  0  0  0  0  0  0
   -6.5591   14.1696    0.0000 C   0  0  0  0  0  0  0  0  0  0  0  0
   -5.4100   15.1338    0.0000 C   0  0  0  0  0  0  0  0  0  0  0  0
   -4.1380   14.3389    0.0000 C   0  0  0  0  0  0  0  0  0  0  0  0
   -2.7472   14.9008    0.0000 O   0  0  0  0  0  0  0  0  0  0  0  0
   -0.4330    0.7500    0.0000 C   0  0  0  0  0  0  0  0  0  0  0  0
    0.8660    0.0000    0.0000 O   0  0  0  0  0  0  0  0  0  0  0  0
   -0.4330   -0.7500    0.0000 C   0  0  0  0  0  0  0  0  0  0  0  0
   -1.7321   -1.5000    0.0000 C   0  0  0  0  0  0  0  0  0  0  0  0
   -1.7321   -3.0000    0.0000 O   0  0  0  0  0  0  0  0  0  0  0  0
  1  2  1  0
  2  3  1  0
  3  4  1  0
  4  5  1  0
  5  6  1  1
  5  7  1  0
  7  8  2  0
  8  9  1  0
  8 10  1  0
 10 11  2  0
 11 12  1  0
 11 13  1  0
 13 14  2  0
 13 15  1  0
 15 16  1  0
 16 17  2  0
 17 18  1  0
 18 19  1  6
 18 20  1  0
 20 21  2  0
 21 22  1  0
 22 23  2  0
 23 24  1  0
 24 25  2  0
 25 26  1  0
 26 27  2  0
 26 28  1  0
 28 29  1  0
 29 30  2  0
 30 31  1  0
 30 32  1  0
 32 33  1  0
 33 34  1  0
 34 35  2  0
 18 36  1  0
 36 37  1  6
 38 37  1  6
 38 39  1  0
 39 40  2  0
 39 16  1  0
 34 29  1  0
 38 36  1  0
M  END
>  <molecule_chembl_id>  (90) 
CHEMBL285848

>  <canonical_smiles>  (90) 
CCCC[C@@H](C)/C=C(C)/C=C(\C)C(=O)NC1=C[C@@](O)(/C=C/C=C/C=C/C(=O)NC2=C(O)CCC2=O)[C@@H]2O[C@@H]2C1=O

>  <pchembl_value_mean>  (90) 
5.45

>  <inchi>  (90) 
InChI=1S/C31H38N2O7/c1-5-6-11-19(2)16-20(3)17-21(4)30(38)32-22-18-31(39,29-28(40-29)27(22)37)15-10-8-7-9-12-25(36)33-26-23(34)13-14-24(26)35/h7-10,12,15-19,28-29,34,39H,5-6,11,13-14H2,1-4H3,(H,32,38)(H,33,36)/b8-7+,12-9+,15-10+,20-16+,21-17+/t19-,28-,29-,31+/m1/s1

$$$$

     RDKit          2D

 39 45  0  0  0  0  0  0  0  0999 V2000
   -1.7455   -5.5373    0.0000 C   0  0  0  0  0  0  0  0  0  0  0  0
   -0.7418   -6.6520    0.0000 N   0  0  0  0  0  0  0  0  0  0  0  0
   -1.0537   -8.1192    0.0000 C   0  0  0  0  0  0  0  0  0  0  0  0
    0.2454   -8.8692    0.0000 C   0  0  0  0  0  0  0  0  0  0  0  0
    1.3601   -7.8655    0.0000 N   0  0  0  0  0  0  0  0  0  0  0  0
    0.7500   -6.4952    0.0000 C   0  0  0  0  0  0  0  0  0  0  0  0
    1.5000   -5.1962    0.0000 C   0  0  0  0  0  0  0  0  0  0  0  0
    0.7500   -3.8971    0.0000 C   0  0  0  0  0  0  0  0  0  0  0  0
    1.5000   -2.5981    0.0000 O   0  0  0  0  0  0  0  0  0  0  0  0
    0.7500   -1.2990    0.0000 C   0  0  0  0  0  0  0  0  0  0  0  0
    1.5000    0.0000    0.0000 N   0  0  0  0  0  0  0  0  0  0  0  0
    0.7500    1.2990    0.0000 C   0  0  0  0  0  0  0  0  0  0  0  0
    1.5000    2.5981    0.0000 N   0  0  0  0  0  0  0  0  0  0  0  0
    3.0000    2.5981    0.0000 C   0  0  0  0  0  0  0  0  0  0  0  0
    3.7500    3.8971    0.0000 C   0  0  0  0  0  0  0  0  0  0  0  0
    4.0619    5.3643    0.0000 C   0  0  0  0  0  0  0  0  0  0  0  0
    2.7628    6.1143    0.0000 C   0  0  0  0  0  0  0  0  0  0  0  0
    1.6481    5.1106    0.0000 C   0  0  0  0  0  0  0  0  0  0  0  0
    0.7500    3.8971    0.0000 C   0  0  0  0  0  0  0  0  0  0  0  0
    2.2582    3.7403    0.0000 N   0  0  0  0  0  0  0  0  0  0  0  0
   -0.7500    1.2990    0.0000 C   0  0  0  0  0  0  0  0  0  0  0  0
   -1.5000    2.5981    0.0000 C   0  0  0  0  0  0  0  0  0  0  0  0
   -3.0000    2.5981    0.0000 N   0  0  0  0  0  0  0  0  0  0  0  0
   -3.7500    1.2990    0.0000 C   0  0  0  0  0  0  0  0  0  0  0  0
   -5.2500    1.2990    0.0000 C   0  0  0  0  0  0  0  0  0  0  0  0
   -6.0000   -0.0000    0.0000 C   0  0  0  0  0  0  0  0  0  0  0  0
   -7.5000   -0.0000    0.0000 C   0  0  0  0  0  0  0  0  0  0  0  0
   -8.2500   -1.2990    0.0000 O   0  0  0  0  0  0  0  0  0  0  0  0
   -8.2500    1.2990    0.0000 C   0  0  0  0  0  0  0  0  0  0  0  0
   -7.5000    2.5981    0.0000 C   0  0  0  0  0  0  0  0  0  0  0  0
   -8.2500    3.8971    0.0000 C   0  0  0  0  0  0  0  0  0  0  0  0
   -7.5000    5.1962    0.0000 C   0  0  0  0  0  0  0  0  0  0  0  0
   -6.0000    5.1962    0.0000 C   0  0  0  0  0  0  0  0  0  0  0  0
   -5.2500    3.8971    0.0000 C   0  0  0  0  0  0  0  0  0  0  0  0
   -6.0000    2.5981    0.0000 C   0  0  0  0  0  0  0  0  0  0  0  0
   -3.0000    0.0000    0.0000 C   0  0  0  0  0  0  0  0  0  0  0  0
   -3.7500   -1.2990    0.0000 F   0  0  0  0  0  0  0  0  0  0  0  0
   -1.5000    0.0000    0.0000 C   0  0  0  0  0  0  0  0  0  0  0  0
   -0.7500   -1.2990    0.0000 N   0  0  0  0  0  0  0  0  0  0  0  0
  1  2  1  0
  2  3  1  0
  3  4  2  0
  4  5  1  0
  5  6  2  0
  6  7  1  0
  7  8  1  0
  8  9  1  0
  9 10  1  0
 10 11  2  0
 11 12  1  0
 12 13  1  0
 13 14  1  0
 15 14  1  6
 15 16  1  0
 16 17  1  0
 18 17  1  6
 18 19  1  0
 18 20  1  0
 12 21  2  0
 21 22  1  0
 22 23  2  0
 23 24  1  0
 24 25  1  0
 25 26  2  0
 26 27  1  0
 27 28  1  0
 27 29  2  0
 29 30  1  0
 30 31  2  0
 31 32  1  0
 32 33  2  0
 33 34  1  0
 34 35  2  0
 24 36  2  0
 36 37  1  0
 36 38  1  0
 38 39  2  0
  6  2  1  0
 39 10  1  0
 19 13  1  0
 38 21  1  0
 20 15  1  0
 35 25  1  0
 35 30  1  0
M  END
>  <molecule_chembl_id>  (91) 
CHEMBL5080117

>  <canonical_smiles>  (91) 
Cn1ccnc1CCOc1nc(N2C[C@H]3CC[C@@H](C2)N3)c2cnc(-c3cc(O)cc4ccccc34)c(F)c2n1

>  <pchembl_value_mean>  (91) 
5.46

>  <inchi>  (91) 
InChI=1S/C29H28FN7O2/c1-36-10-9-31-24(36)8-11-39-29-34-27-23(28(35-29)37-15-18-6-7-19(16-37)33-18)14-32-26(25(27)30)22-13-20(38)12-17-4-2-3-5-21(17)22/h2-5,9-10,12-14,18-19,33,38H,6-8,11,15-16H2,1H3/t18-,19+

$$$$

     RDKit          2D

 49 56  0  0  0  0  0  0  0  0999 V2000
   -3.3818  -11.6074    0.0000 C   0  0  0  0  0  0  0  0  0  0  0  0
   -2.1424  -10.7624    0.0000 C   0  0  0  0  0  0  0  0  0  0  0  0
   -0.7910  -11.4132    0.0000 C   0  0  0  0  0  0  0  0  0  0  0  0
    0.4484  -10.5682    0.0000 C   0  0  0  0  0  0  0  0  0  0  0  0
    1.7998  -11.2191    0.0000 N   0  0  0  0  0  0  0  0  0  0  0  0
    0.3363   -9.0724    0.0000 N   0  0  0  0  0  0  0  0  0  0  0  0
   -1.0152   -8.4216    0.0000 C   0  0  0  0  0  0  0  0  0  0  0  0
   -1.1273   -6.9258    0.0000 C   0  0  0  0  0  0  0  0  0  0  0  0
   -2.4787   -6.2750    0.0000 C   0  0  0  0  0  0  0  0  0  0  0  0
   -2.5908   -4.7792    0.0000 C   0  0  0  0  0  0  0  0  0  0  0  0
   -4.0307   -4.3423    0.0000 N   0  0  0  0  0  0  0  0  0  0  0  0
   -4.2543   -2.8590    0.0000 C   0  0  0  0  0  0  0  0  0  0  0  0
   -5.6506   -2.3110    0.0000 O   0  0  0  0  0  0  0  0  0  0  0  0
   -5.8742   -0.8278    0.0000 C   0  0  0  0  0  0  0  0  0  0  0  0
   -7.2705   -0.2797    0.0000 C   0  0  0  0  0  0  0  0  0  0  0  0
   -8.5346   -1.0873    0.0000 C   0  0  0  0  0  0  0  0  0  0  0  0
   -9.6932   -0.1346    0.0000 C   0  0  0  0  0  0  0  0  0  0  0  0
   -9.1452    1.2617    0.0000 C   0  0  0  0  0  0  0  0  0  0  0  0
   -7.6479    1.1720    0.0000 N   0  0  0  0  0  0  0  0  0  0  0  0
   -6.6952    2.3306    0.0000 C   0  0  0  0  0  0  0  0  0  0  0  0
   -3.0815   -1.9238    0.0000 N   0  0  0  0  0  0  0  0  0  0  0  0
   -1.6852   -2.4718    0.0000 C   0  0  0  0  0  0  0  0  0  0  0  0
   -1.3515   -3.9342    0.0000 C   0  0  0  0  0  0  0  0  0  0  0  0
   -0.0000   -4.5850    0.0000 C   0  0  0  0  0  0  0  0  0  0  0  0
    0.1121   -6.0808    0.0000 C   0  0  0  0  0  0  0  0  0  0  0  0
    1.4635   -6.7316    0.0000 Cl  0  0  0  0  0  0  0  0  0  0  0  0
    1.3515   -3.9342    0.0000 O   0  0  0  0  0  0  0  0  0  0  0  0
    1.6852   -2.4718    0.0000 C   0  0  0  0  0  0  0  0  0  0  0  0
    0.7500   -1.2990    0.0000 C   0  0  0  0  0  0  0  0  0  0  0  0
    1.5000    0.0000    0.0000 C   0  0  0  0  0  0  0  0  0  0  0  0
    0.7500    1.2990    0.0000 N   0  0  0  0  0  0  0  0  0  0  0  0
    1.5000    2.5981    0.0000 C   0  0  0  0  0  0  0  0  0  0  0  0
    0.7500    3.8971    0.0000 O   0  0  0  0  0  0  0  0  0  0  0  0
    3.0000    2.5981    0.0000 C   0  0  0  0  0  0  0  0  0  0  0  0
    3.7500    3.8971    0.0000 C   0  0  0  0  0  0  0  0  0  0  0  0
    3.3618    5.3460    0.0000 C   0  0  0  0  0  0  0  0  0  0  0  0
    4.8107    5.7342    0.0000 C   0  0  0  0  0  0  0  0  0  0  0  0
    5.1989    4.2853    0.0000 C   0  0  0  0  0  0  0  0  0  0  0  0
    6.6478    4.6736    0.0000 C   0  0  0  0  0  0  0  0  0  0  0  0
    7.0360    3.2247    0.0000 N   0  0  0  0  0  0  0  0  0  0  0  0
    5.5871    2.8365    0.0000 C   0  0  0  0  0  0  0  0  0  0  0  0
   -0.7500    1.2990    0.0000 C   0  0  0  0  0  0  0  0  0  0  0  0
   -1.5000    0.0000    0.0000 C   0  0  0  0  0  0  0  0  0  0  0  0
   -0.7500   -1.2990    0.0000 N   0  0  0  0  0  0  0  0  0  0  0  0
   -2.2545   -9.2666    0.0000 C   0  0  0  0  0  0  0  0  0  0  0  0
   -3.6060   -8.6157    0.0000 C   0  0  0  0  0  0  0  0  0  0  0  0
   -4.9574   -7.9649    0.0000 F   0  0  0  0  0  0  0  0  0  0  0  0
   -4.2568   -9.9672    0.0000 F   0  0  0  0  0  0  0  0  0  0  0  0
   -2.9552   -7.2643    0.0000 F   0  0  0  0  0  0  0  0  0  0  0  0
  1  2  1  0
  2  3  2  0
  3  4  1  0
  4  5  1  0
  4  6  2  0
  6  7  1  0
  7  8  1  0
  8  9  2  0
  9 10  1  0
 10 11  2  0
 11 12  1  0
 12 13  1  0
 13 14  1  0
 15 14  1  6
 15 16  1  0
 16 17  1  0
 17 18  1  0
 18 19  1  0
 19 20  1  0
 12 21  2  0
 21 22  1  0
 22 23  2  0
 23 24  1  0
 24 25  2  0
 25 26  1  0
 24 27  1  0
 27 28  1  0
 29 28  1  1
 29 30  1  0
 30 31  1  0
 31 32  1  0
 32 33  2  0
 32 34  1  0
 35 34  1  1
 35 36  1  0
 36 37  1  0
 37 38  1  0
 38 39  1  0
 39 40  1  0
 40 41  1  0
 31 42  1  0
 42 43  1  0
 43 44  1  0
  7 45  2  0
 45 46  1  0
 46 47  1  0
 46 48  1  0
 46 49  1  0
 45  2  1  0
 25  8  1  0
 44 29  1  0
 23 10  1  0
 38 35  1  0
 19 15  1  0
 44 22  1  0
 41 38  1  0
M  END
>  <molecule_chembl_id>  (92) 
CHEMBL5401087

>  <canonical_smiles>  (92) 
Cc1cc(N)nc(-c2cc3nc(OC[C@@H]4CCCN4C)nc4c3c(c2Cl)OC[C@@H]2CN(C(=O)C[C@H]3CCC35CNC5)CCN42)c1C(F)(F)F

>  <pchembl_value_mean>  (92) 
5.46

>  <inchi>  (92) 
InChI=1S/C34H40ClF3N8O3/c1-18-10-24(39)42-29(27(18)34(36,37)38)22-12-23-26-30(28(22)35)48-15-21-13-45(25(47)11-19-5-6-33(19)16-40-17-33)8-9-46(21)31(26)43-32(41-23)49-14-20-4-3-7-44(20)2/h10,12,19-21,40H,3-9,11,13-17H2,1-2H3,(H2,39,42)/t19-,20+,21+/m1/s1

$$$$

     RDKit          2D

139150  0  0  0  0  0  0  0  0999 V2000
    5.2797    7.6607    0.0000 C   0  0  0  0  0  0  0  0  0  0  0  0
    4.4163    8.8873    0.0000 C   0  0  0  0  0  0  0  0  0  0  0  0
    5.3574   10.0553    0.0000 O   0  0  0  0  0  0  0  0  0  0  0  0
    2.9223    8.7528    0.0000 N   0  0  0  0  0  0  0  0  0  0  0  0
    2.0589    9.9794    0.0000 C   0  0  0  0  0  0  0  0  0  0  0  0
    0.5650    9.8450    0.0000 C   0  0  0  0  0  0  0  0  0  0  0  0
   -0.0656    8.4839    0.0000 C   0  0  0  0  0  0  0  0  0  0  0  0
   -1.5595    8.3495    0.0000 C   0  0  0  0  0  0  0  0  0  0  0  0
   -2.1901    6.9884    0.0000 C   0  0  0  0  0  0  0  0  0  0  0  0
   -1.3267    5.7618    0.0000 C   0  0  0  0  0  0  0  0  0  0  0  0
    0.1673    5.8963    0.0000 C   0  0  0  0  0  0  0  0  0  0  0  0
    0.7978    7.2573    0.0000 C   0  0  0  0  0  0  0  0  0  0  0  0
    2.6895   11.3405    0.0000 C   0  0  0  0  0  0  0  0  0  0  0  0
    2.0865   11.8619    0.0000 O   0  0  0  0  0  0  0  0  0  0  0  0
    4.1834   11.4749    0.0000 N   0  0  0  0  0  0  0  0  0  0  0  0
    4.8140   12.8360    0.0000 C   0  0  0  0  0  0  0  0  0  0  0  0
    3.9505   14.0625    0.0000 C   0  0  0  0  0  0  0  0  0  0  0  0
    2.4566   13.9281    0.0000 C   0  0  0  0  0  0  0  0  0  0  0  0
    1.4697   15.0577    0.0000 C   0  0  0  0  0  0  0  0  0  0  0  0
    0.0904   14.4681    0.0000 N   0  0  0  0  0  0  0  0  0  0  0  0
    0.2248   12.9742    0.0000 C   0  0  0  0  0  0  0  0  0  0  0  0
    1.6872   12.6404    0.0000 N   0  0  0  0  0  0  0  0  0  0  0  0
    6.3079   12.9704    0.0000 C   0  0  0  0  0  0  0  0  0  0  0  0
    6.5904   14.4436    0.0000 O   0  0  0  0  0  0  0  0  0  0  0  0
    7.1713   11.7438    0.0000 N   0  0  0  0  0  0  0  0  0  0  0  0
    8.6653   11.8783    0.0000 C   0  0  0  0  0  0  0  0  0  0  0  0
    9.2958   13.2393    0.0000 C   0  0  0  0  0  0  0  0  0  0  0  0
    8.4324   14.4659    0.0000 C   0  0  0  0  0  0  0  0  0  0  0  0
    9.0629   15.8270    0.0000 C   0  0  0  0  0  0  0  0  0  0  0  0
    8.1995   17.0535    0.0000 C   0  0  0  0  0  0  0  0  0  0  0  0
    6.7056   16.9191    0.0000 C   0  0  0  0  0  0  0  0  0  0  0  0
    6.0750   15.5580    0.0000 C   0  0  0  0  0  0  0  0  0  0  0  0
    6.9384   14.3315    0.0000 C   0  0  0  0  0  0  0  0  0  0  0  0
    9.5287   10.6517    0.0000 C   0  0  0  0  0  0  0  0  0  0  0  0
   10.9458   11.1437    0.0000 O   0  0  0  0  0  0  0  0  0  0  0  0
    8.8982    9.2907    0.0000 N   0  0  0  0  0  0  0  0  0  0  0  0
    9.7616    8.0641    0.0000 C   0  0  0  0  0  0  0  0  0  0  0  0
   11.2556    8.1986    0.0000 C   0  0  0  0  0  0  0  0  0  0  0  0
   11.8861    9.5596    0.0000 C   0  0  0  0  0  0  0  0  0  0  0  0
   13.3801    9.6941    0.0000 C   0  0  0  0  0  0  0  0  0  0  0  0
   14.0106   11.0551    0.0000 C   0  0  0  0  0  0  0  0  0  0  0  0
   13.1472   12.2817    0.0000 C   0  0  0  0  0  0  0  0  0  0  0  0
   13.7777   13.6427    0.0000 O   0  0  0  0  0  0  0  0  0  0  0  0
   11.6532   12.1472    0.0000 C   0  0  0  0  0  0  0  0  0  0  0  0
   11.0227   10.7862    0.0000 C   0  0  0  0  0  0  0  0  0  0  0  0
    9.1311    6.7031    0.0000 C   0  0  0  0  0  0  0  0  0  0  0  0
   10.1376    5.5909    0.0000 O   0  0  0  0  0  0  0  0  0  0  0  0
    7.6371    6.5686    0.0000 N   0  0  0  0  0  0  0  0  0  0  0  0
    7.0066    5.2076    0.0000 C   0  0  0  0  0  0  0  0  0  0  0  0
    7.8700    3.9810    0.0000 C   0  0  0  0  0  0  0  0  0  0  0  0
    9.3640    4.1154    0.0000 C   0  0  0  0  0  0  0  0  0  0  0  0
   10.1557    5.3895    0.0000 O   0  0  0  0  0  0  0  0  0  0  0  0
   10.2274    2.8889    0.0000 O   0  0  0  0  0  0  0  0  0  0  0  0
    5.5126    5.0731    0.0000 C   0  0  0  0  0  0  0  0  0  0  0  0
    4.8821    3.7121    0.0000 O   0  0  0  0  0  0  0  0  0  0  0  0
    4.6492    6.2997    0.0000 N   0  0  0  0  0  0  0  0  0  0  0  0
    3.1552    6.1652    0.0000 C   0  0  0  0  0  0  0  0  0  0  0  0
    3.0655    4.6679    0.0000 C   0  0  0  0  0  0  0  0  0  0  0  0
    2.5385    3.2636    0.0000 C   0  0  0  0  0  0  0  0  0  0  0  0
    1.6209    2.0770    0.0000 C   0  0  0  0  0  0  0  0  0  0  0  0
    0.3943    1.2135    0.0000 N   0  0  0  0  0  0  0  0  0  0  0  0
    1.2760    0.0000    0.0000 N   0  0  0  0  0  0  0  0  0  0  0  0
    0.3943   -1.2135    0.0000 N   0  0  0  0  0  0  0  0  0  0  0  0
   -1.0323   -0.7500    0.0000 C   0  0  0  0  0  0  0  0  0  0  0  0
   -1.0323    0.7500    0.0000 C   0  0  0  0  0  0  0  0  0  0  0  0
   -2.5321    0.7276    0.0000 C   0  0  0  0  0  0  0  0  0  0  0  0
   -3.9719    1.1482    0.0000 O   0  0  0  0  0  0  0  0  0  0  0  0
   -5.2238    1.9745    0.0000 C   0  0  0  0  0  0  0  0  0  0  0  0
   -6.1765    3.1332    0.0000 C   0  0  0  0  0  0  0  0  0  0  0  0
   -7.4641    2.3638    0.0000 C   0  0  0  0  0  0  0  0  0  0  0  0
   -7.4417    0.8640    0.0000 O   0  0  0  0  0  0  0  0  0  0  0  0
   -8.7743    3.0943    0.0000 N   0  0  0  0  0  0  0  0  0  0  0  0
  -10.0619    2.3250    0.0000 C   0  0  0  0  0  0  0  0  0  0  0  0
  -11.3720    3.0554    0.0000 C   0  0  0  0  0  0  0  0  0  0  0  0
  -12.6597    2.2861    0.0000 C   0  0  0  0  0  0  0  0  0  0  0  0
  -13.9698    3.0166    0.0000 C   0  0  0  0  0  0  0  0  0  0  0  0
  -12.6373    0.7863    0.0000 C   0  0  0  0  0  0  0  0  0  0  0  0
  -10.0395    0.8251    0.0000 C   0  0  0  0  0  0  0  0  0  0  0  0
   -8.7294    0.0946    0.0000 O   0  0  0  0  0  0  0  0  0  0  0  0
  -11.3272    0.0558    0.0000 N   0  0  0  0  0  0  0  0  0  0  0  0
  -11.3047   -1.4441    0.0000 C   0  0  0  0  0  0  0  0  0  0  0  0
  -12.5924   -2.2134    0.0000 C   0  0  0  0  0  0  0  0  0  0  0  0
  -12.5700   -3.7132    0.0000 C   0  0  0  0  0  0  0  0  0  0  0  0
  -13.9418   -4.3199    0.0000 C   0  0  0  0  0  0  0  0  0  0  0  0
  -11.4755   -4.7390    0.0000 C   0  0  0  0  0  0  0  0  0  0  0  0
   -9.9946   -2.1745    0.0000 C   0  0  0  0  0  0  0  0  0  0  0  0
   -8.7069   -1.4052    0.0000 O   0  0  0  0  0  0  0  0  0  0  0  0
   -9.9722   -3.6744    0.0000 N   0  0  0  0  0  0  0  0  0  0  0  0
   -8.7456   -4.5378    0.0000 C   0  0  0  0  0  0  0  0  0  0  0  0
   -9.1877   -5.9712    0.0000 C   0  0  0  0  0  0  0  0  0  0  0  0
  -10.6876   -5.9936    0.0000 C   0  0  0  0  0  0  0  0  0  0  0  0
  -11.1724   -4.5741    0.0000 C   0  0  0  0  0  0  0  0  0  0  0  0
  -12.6057   -4.1320    0.0000 C   0  0  0  0  0  0  0  0  0  0  0  0
  -13.5727   -5.2787    0.0000 C   0  0  0  0  0  0  0  0  0  0  0  0
  -12.9395   -2.6696    0.0000 N   0  0  0  0  0  0  0  0  0  0  0  0
  -14.3188   -2.0800    0.0000 C   0  0  0  0  0  0  0  0  0  0  0  0
  -14.1843   -0.5861    0.0000 C   0  0  0  0  0  0  0  0  0  0  0  0
  -12.7219   -0.2523    0.0000 C   0  0  0  0  0  0  0  0  0  0  0  0
  -11.9526   -1.5400    0.0000 C   0  0  0  0  0  0  0  0  0  0  0  0
  -10.4586   -1.6744    0.0000 C   0  0  0  0  0  0  0  0  0  0  0  0
   -9.5952   -0.4479    0.0000 N   0  0  0  0  0  0  0  0  0  0  0  0
   -9.5175   -2.8424    0.0000 O   0  0  0  0  0  0  0  0  0  0  0  0
   -6.7453    4.5211    0.0000 N   0  0  0  0  0  0  0  0  0  0  0  0
   -6.8798    6.0151    0.0000 C   0  0  0  0  0  0  0  0  0  0  0  0
   -8.3771    6.1048    0.0000 O   0  0  0  0  0  0  0  0  0  0  0  0
   -6.5679    7.4823    0.0000 C   0  0  0  0  0  0  0  0  0  0  0  0
   -7.9722    8.0094    0.0000 C   0  0  0  0  0  0  0  0  0  0  0  0
   -8.2180    9.4891    0.0000 C   0  0  0  0  0  0  0  0  0  0  0  0
   -7.0593   10.4418    0.0000 C   0  0  0  0  0  0  0  0  0  0  0  0
   -7.3051   11.9215    0.0000 C   0  0  0  0  0  0  0  0  0  0  0  0
   -8.7094   12.4486    0.0000 C   0  0  0  0  0  0  0  0  0  0  0  0
   -8.9552   13.9283    0.0000 C   0  0  0  0  0  0  0  0  0  0  0  0
  -10.3595   14.4554    0.0000 C   0  0  0  0  0  0  0  0  0  0  0  0
  -11.5181   13.5027    0.0000 C   0  0  0  0  0  0  0  0  0  0  0  0
  -11.2724   12.0230    0.0000 C   0  0  0  0  0  0  0  0  0  0  0  0
   -9.8681   11.4959    0.0000 C   0  0  0  0  0  0  0  0  0  0  0  0
   -9.6223   10.0162    0.0000 C   0  0  0  0  0  0  0  0  0  0  0  0
   -5.8374    8.7924    0.0000 N   0  0  0  0  0  0  0  0  0  0  0  0
   -4.7532    9.8290    0.0000 C   0  0  0  0  0  0  0  0  0  0  0  0
   -5.6166   11.0556    0.0000 O   0  0  0  0  0  0  0  0  0  0  0  0
   -3.4117   10.5000    0.0000 C   0  0  0  0  0  0  0  0  0  0  0  0
   -4.1026   11.8314    0.0000 C   0  0  0  0  0  0  0  0  0  0  0  0
   -3.0499   12.8999    0.0000 C   0  0  0  0  0  0  0  0  0  0  0  0
   -1.7084   12.2290    0.0000 C   0  0  0  0  0  0  0  0  0  0  0  0
   -1.9319   10.7457    0.0000 N   0  0  0  0  0  0  0  0  0  0  0  0
   -0.4455   10.5444    0.0000 C   0  0  0  0  0  0  0  0  0  0  0  0
   -0.0249   11.9842    0.0000 O   0  0  0  0  0  0  0  0  0  0  0  0
    0.9155    9.9138    0.0000 C   0  0  0  0  0  0  0  0  0  0  0  0
    1.7419   11.1657    0.0000 C   0  0  0  0  0  0  0  0  0  0  0  0
    3.2392   11.0760    0.0000 C   0  0  0  0  0  0  0  0  0  0  0  0
    3.9102    9.7344    0.0000 C   0  0  0  0  0  0  0  0  0  0  0  0
    5.4075    9.6447    0.0000 C   0  0  0  0  0  0  0  0  0  0  0  0
    6.2338   10.8966    0.0000 C   0  0  0  0  0  0  0  0  0  0  0  0
    7.7312   10.8069    0.0000 O   0  0  0  0  0  0  0  0  0  0  0  0
    5.5629   12.2381    0.0000 C   0  0  0  0  0  0  0  0  0  0  0  0
    4.0656   12.3278    0.0000 C   0  0  0  0  0  0  0  0  0  0  0  0
    2.0303    8.9101    0.0000 N   0  0  0  0  0  0  0  0  0  0  0  0
    2.7996    7.6225    0.0000 C   0  0  0  0  0  0  0  0  0  0  0  0
    4.2840    7.8385    0.0000 O   0  0  0  0  0  0  0  0  0  0  0  0
  1  2  1  0
  2  3  2  0
  2  4  1  0
  4  5  1  0
  5  6  1  1
  6  7  1  0
  7  8  2  0
  8  9  1  0
  9 10  2  0
 10 11  1  0
 11 12  2  0
  5 13  1  0
 13 14  2  0
 13 15  1  0
 15 16  1  0
 16 17  1  1
 17 18  1  0
 18 19  2  0
 19 20  1  0
 20 21  2  0
 21 22  1  0
 16 23  1  0
 23 24  2  0
 23 25  1  0
 25 26  1  0
 26 27  1  1
 27 28  1  0
 28 29  2  0
 29 30  1  0
 30 31  2  0
 31 32  1  0
 32 33  2  0
 26 34  1  0
 34 35  2  0
 34 36  1  0
 36 37  1  0
 37 38  1  1
 38 39  1  0
 39 40  2  0
 40 41  1  0
 41 42  2  0
 42 43  1  0
 42 44  1  0
 44 45  2  0
 37 46  1  0
 46 47  2  0
 46 48  1  0
 48 49  1  0
 49 50  1  1
 50 51  1  0
 51 52  2  0
 51 53  1  0
 49 54  1  0
 54 55  2  0
 54 56  1  0
 57 56  1  1
 57 58  1  0
 58 59  1  0
 59 60  1  0
 60 61  1  0
 61 62  1  0
 62 63  2  0
 63 64  1  0
 64 65  2  0
 65 66  1  0
 66 67  1  0
 67 68  1  0
 68 69  1  0
 69 70  1  1
 70 71  2  0
 70 72  1  0
 72 73  1  0
 73 74  1  6
 74 75  1  0
 75 76  1  0
 75 77  1  0
 73 78  1  0
 78 79  2  0
 78 80  1  0
 80 81  1  0
 81 82  1  6
 82 83  1  0
 83 84  1  0
 83 85  1  0
 81 86  1  0
 86 87  2  0
 86 88  1  0
 88 89  1  0
 89 90  1  0
 90 91  1  0
 91 92  1  0
 92 93  1  1
 93 94  1  0
 93 95  1  0
 95 96  1  0
 96 97  1  0
 97 98  1  0
 98 99  1  0
 99100  1  1
100101  1  0
100102  2  0
 69103  1  0
103104  1  0
104105  2  0
104106  1  0
106107  1  6
107108  1  0
108109  2  0
109110  1  0
110111  2  0
111112  1  0
112113  2  0
113114  1  0
114115  2  0
115116  1  0
116117  2  0
106118  1  0
118119  1  0
119120  2  0
119121  1  0
121122  1  6
122123  1  0
123124  1  0
124125  1  0
125126  1  0
126127  2  0
126128  1  0
128129  1  6
129130  1  0
130131  2  0
131132  1  0
132133  2  0
133134  1  0
133135  1  0
135136  2  0
128137  1  0
137138  1  0
138139  2  0
 12  7  1  0
 22 18  1  0
 33 28  1  0
 45 39  1  0
138 57  1  0
 65 61  1  0
 92 88  1  0
 99 95  1  0
117108  1  0
125121  1  0
136130  1  0
116111  1  0
M  END
>  <molecule_chembl_id>  (93) 
CHEMBL5090997

>  <canonical_smiles>  (93) 
CC(=O)N[C@@H](Cc1ccccc1)C(=O)N[C@@H](Cc1cnc[nH]1)C(=O)N[C@@H](Cc1ccccc1)C(=O)N[C@@H](Cc1ccc(O)cc1)C(=O)N[C@@H](CC(=O)O)C(=O)N[C@H]1CCCn2nncc2COC[C@@H](C(=O)N[C@@H](CC(C)C)C(=O)N[C@@H](CC(C)C)C(=O)N2CCC[C@H]2C(C)N2CCC[C@H]2C(N)=O)NC(=O)[C@H](Cc2ccc3ccccc3c2)NC(=O)[C@@H]2CCCN2C(=O)[C@H](Cc2ccc(O)cc2)NC1=O

>  <pchembl_value_mean>  (93) 
5.48

>  <inchi>  (93) 
InChI=1S/C100H126N20O19/c1-58(2)43-74(90(128)113-81(44-59(3)4)99(137)118-40-16-26-84(118)60(5)117-39-17-27-85(117)88(101)126)107-97(135)83-56-139-55-70-54-104-116-120(70)42-15-25-73(89(127)114-82(49-65-32-37-72(123)38-33-65)100(138)119-41-18-28-86(119)98(136)112-78(94(132)115-83)50-66-29-34-67-23-13-14-24-68(67)45-66)106-96(134)80(52-87(124)125)111-93(131)77(48-64-30-35-71(122)36-31-64)108-92(130)76(47-63-21-11-8-12-22-63)109-95(133)79(51-69-53-102-57-103-69)110-91(129)75(105-61(6)121)46-62-19-9-7-10-20-62/h7-14,19-24,29-38,45,53-54,57-60,73-86,122-123H,15-18,25-28,39-44,46-52,55-56H2,1-6H3,(H2,101,126)(H,102,103)(H,105,121)(H,106,134)(H,107,135)(H,108,130)(H,109,133)(H,110,129)(H,111,131)(H,112,136)(H,113,128)(H,114,127)(H,115,132)(H,124,125)/t60?,73-,74-,75-,76-,77-,78-,79-,80-,81-,82-,83-,84-,85-,86-/m0/s1

$$$$

     RDKit          2D

 41 46  0  0  0  0  0  0  0  0999 V2000
    9.7500   -3.8971    0.0000 C   0  0  0  0  0  0  0  0  0  0  0  0
    8.2500   -3.8971    0.0000 C   0  0  0  0  0  0  0  0  0  0  0  0
    7.5000   -2.5981    0.0000 C   0  0  0  0  0  0  0  0  0  0  0  0
    8.2500   -1.2990    0.0000 O   0  0  0  0  0  0  0  0  0  0  0  0
    6.0000   -2.5981    0.0000 N   0  0  0  0  0  0  0  0  0  0  0  0
    5.2500   -3.8971    0.0000 C   0  0  0  0  0  0  0  0  0  0  0  0
    3.7500   -3.8971    0.0000 C   0  0  0  0  0  0  0  0  0  0  0  0
    3.0000   -2.5981    0.0000 N   0  0  0  0  0  0  0  0  0  0  0  0
    1.5000   -2.5981    0.0000 C   0  0  0  0  0  0  0  0  0  0  0  0
    0.7500   -3.8971    0.0000 N   0  0  0  0  0  0  0  0  0  0  0  0
   -0.7500   -3.8971    0.0000 C   0  0  0  0  0  0  0  0  0  0  0  0
   -1.5000   -5.1962    0.0000 O   0  0  0  0  0  0  0  0  0  0  0  0
   -3.0000   -5.1962    0.0000 C   0  0  0  0  0  0  0  0  0  0  0  0
   -3.7500   -6.4952    0.0000 C   0  0  0  0  0  0  0  0  0  0  0  0
   -3.1399   -7.8655    0.0000 C   0  0  0  0  0  0  0  0  0  0  0  0
   -4.2546   -8.8692    0.0000 C   0  0  0  0  0  0  0  0  0  0  0  0
   -5.5537   -8.1192    0.0000 C   0  0  0  0  0  0  0  0  0  0  0  0
   -5.2418   -6.6520    0.0000 N   0  0  0  0  0  0  0  0  0  0  0  0
   -6.2455   -5.5373    0.0000 C   0  0  0  0  0  0  0  0  0  0  0  0
   -1.5000   -2.5981    0.0000 N   0  0  0  0  0  0  0  0  0  0  0  0
   -0.7500   -1.2990    0.0000 C   0  0  0  0  0  0  0  0  0  0  0  0
    0.7500   -1.2990    0.0000 C   0  0  0  0  0  0  0  0  0  0  0  0
    1.5000    0.0000    0.0000 C   0  0  0  0  0  0  0  0  0  0  0  0
    0.7500    1.2990    0.0000 C   0  0  0  0  0  0  0  0  0  0  0  0
   -0.7500    1.2990    0.0000 N   0  0  0  0  0  0  0  0  0  0  0  0
   -1.5000    2.5981    0.0000 C   0  0  0  0  0  0  0  0  0  0  0  0
   -3.0000    2.5981    0.0000 C   0  0  0  0  0  0  0  0  0  0  0  0
   -3.7500    3.8971    0.0000 C   0  0  0  0  0  0  0  0  0  0  0  0
   -3.0000    5.1962    0.0000 C   0  0  0  0  0  0  0  0  0  0  0  0
   -1.5000    5.1962    0.0000 C   0  0  0  0  0  0  0  0  0  0  0  0
   -0.7500    6.4952    0.0000 C   0  0  0  0  0  0  0  0  0  0  0  0
    0.7500    6.4952    0.0000 C   0  0  0  0  0  0  0  0  0  0  0  0
    1.5000    5.1962    0.0000 C   0  0  0  0  0  0  0  0  0  0  0  0
    0.7500    3.8971    0.0000 C   0  0  0  0  0  0  0  0  0  0  0  0
   -0.7500    3.8971    0.0000 C   0  0  0  0  0  0  0  0  0  0  0  0
   -1.5000    0.0000    0.0000 C   0  0  0  0  0  0  0  0  0  0  0  0
    3.7500   -1.2990    0.0000 C   0  0  0  0  0  0  0  0  0  0  0  0
    3.0000   -0.0000    0.0000 C   0  0  0  0  0  0  0  0  0  0  0  0
    3.7500    1.2990    0.0000 C   0  0  0  0  0  0  0  0  0  0  0  0
    4.5000    2.5981    0.0000 N   0  0  0  0  0  0  0  0  0  0  0  0
    5.2500   -1.2990    0.0000 C   0  0  0  0  0  0  0  0  0  0  0  0
  1  2  2  0
  2  3  1  0
  3  4  2  0
  3  5  1  0
  5  6  1  0
  6  7  1  0
  7  8  1  0
  8  9  1  0
  9 10  2  0
 10 11  1  0
 11 12  1  0
 12 13  1  0
 14 13  1  6
 14 15  1  0
 15 16  1  0
 16 17  1  0
 17 18  1  0
 18 19  1  0
 11 20  2  0
 20 21  1  0
 21 22  2  0
 22 23  1  0
 23 24  1  0
 24 25  1  0
 25 26  1  0
 26 27  2  0
 27 28  1  0
 28 29  2  0
 29 30  1  0
 30 31  2  0
 31 32  1  0
 32 33  2  0
 33 34  1  0
 34 35  2  0
 25 36  1  0
  8 37  1  0
 37 38  1  0
 38 39  1  0
 39 40  3  0
 37 41  1  0
 41  5  1  0
 22  9  1  0
 35 26  1  0
 18 14  1  0
 36 21  1  0
 35 30  1  0
M  END
>  <molecule_chembl_id>  (94) 
CHEMBL4639210

>  <canonical_smiles>  (94) 
C=CC(=O)N1CCN(c2nc(OC[C@@H]3CCCN3C)nc3c2CCN(c2cccc4ccccc24)C3)C(CC#N)C1

>  <pchembl_value_mean>  (94) 
5.48

>  <inchi>  (94) 
InChI=1S/C32H37N7O2/c1-3-30(40)38-18-19-39(24(20-38)13-15-33)31-27-14-17-37(29-12-6-9-23-8-4-5-11-26(23)29)21-28(27)34-32(35-31)41-22-25-10-7-16-36(25)2/h3-6,8-9,11-12,24-25H,1,7,10,13-14,16-22H2,2H3/t24?,25-/m0/s1

$$$$

     RDKit          2D

 38 43  0  0  0  0  0  0  0  0999 V2000
    3.7500   -9.0933    0.0000 C   0  0  0  0  0  0  0  0  0  0  0  0
    3.0000   -7.7942    0.0000 C   0  0  0  0  0  0  0  0  0  0  0  0
    3.7500   -6.4952    0.0000 C   0  0  0  0  0  0  0  0  0  0  0  0
    5.2500   -6.4952    0.0000 O   0  0  0  0  0  0  0  0  0  0  0  0
    3.0000   -5.1962    0.0000 N   0  0  0  0  0  0  0  0  0  0  0  0
    1.5000   -5.1962    0.0000 C   0  0  0  0  0  0  0  0  0  0  0  0
    0.7500   -3.8971    0.0000 C   0  0  0  0  0  0  0  0  0  0  0  0
    1.5000   -2.5981    0.0000 N   0  0  0  0  0  0  0  0  0  0  0  0
    0.7500   -1.2990    0.0000 C   0  0  0  0  0  0  0  0  0  0  0  0
    1.5000    0.0000    0.0000 N   0  0  0  0  0  0  0  0  0  0  0  0
    0.7500    1.2990    0.0000 N   0  0  0  0  0  0  0  0  0  0  0  0
   -0.7500    1.2990    0.0000 C   0  0  0  0  0  0  0  0  0  0  0  0
   -1.5000    2.5981    0.0000 C   0  0  0  0  0  0  0  0  0  0  0  0
   -3.0000    2.5981    0.0000 C   0  0  0  0  0  0  0  0  0  0  0  0
   -3.7500    3.8971    0.0000 C   0  0  0  0  0  0  0  0  0  0  0  0
   -3.0000    5.1962    0.0000 C   0  0  0  0  0  0  0  0  0  0  0  0
   -1.5000    5.1962    0.0000 C   0  0  0  0  0  0  0  0  0  0  0  0
   -0.7500    3.8971    0.0000 C   0  0  0  0  0  0  0  0  0  0  0  0
    0.7500    3.8971    0.0000 C   0  0  0  0  0  0  0  0  0  0  0  0
    2.0490    3.1471    0.0000 C   0  0  0  0  0  0  0  0  0  0  0  0
    2.0490    4.6471    0.0000 C   0  0  0  0  0  0  0  0  0  0  0  0
   -1.5000    0.0000    0.0000 C   0  0  0  0  0  0  0  0  0  0  0  0
   -3.0000    0.0000    0.0000 C   0  0  0  0  0  0  0  0  0  0  0  0
   -3.7500   -1.2990    0.0000 C   0  0  0  0  0  0  0  0  0  0  0  0
   -5.2500   -1.2990    0.0000 C   0  0  0  0  0  0  0  0  0  0  0  0
   -6.0000    0.0000    0.0000 C   0  0  0  0  0  0  0  0  0  0  0  0
   -5.2500    1.2990    0.0000 O   0  0  0  0  0  0  0  0  0  0  0  0
   -7.5000    0.0000    0.0000 C   0  0  0  0  0  0  0  0  0  0  0  0
   -8.2500   -1.2990    0.0000 C   0  0  0  0  0  0  0  0  0  0  0  0
   -7.5000   -2.5981    0.0000 C   0  0  0  0  0  0  0  0  0  0  0  0
   -6.0000   -2.5981    0.0000 C   0  0  0  0  0  0  0  0  0  0  0  0
   -5.2500   -3.8971    0.0000 F   0  0  0  0  0  0  0  0  0  0  0  0
   -3.0000   -2.5981    0.0000 C   0  0  0  0  0  0  0  0  0  0  0  0
   -3.7500   -3.8971    0.0000 Cl  0  0  0  0  0  0  0  0  0  0  0  0
   -1.5000   -2.5981    0.0000 C   0  0  0  0  0  0  0  0  0  0  0  0
   -0.7500   -1.2990    0.0000 C   0  0  0  0  0  0  0  0  0  0  0  0
    3.0000   -2.5981    0.0000 C   0  0  0  0  0  0  0  0  0  0  0  0
    3.7500   -3.8971    0.0000 C   0  0  0  0  0  0  0  0  0  0  0  0
  1  2  2  0
  2  3  1  0
  3  4  2  0
  3  5  1  0
  5  6  1  0
  6  7  1  0
  7  8  1  0
  8  9  1  0
  9 10  2  0
 10 11  1  0
 11 12  2  0
 12 13  1  0
 13 14  2  0
 14 15  1  0
 15 16  2  0
 16 17  1  0
 17 18  2  0
 18 19  1  0
 19 20  1  0
 20 21  1  0
 12 22  1  0
 22 23  2  0
 23 24  1  0
 24 25  1  0
 25 26  2  0
 26 27  1  0
 26 28  1  0
 28 29  2  0
 29 30  1  0
 30 31  2  0
 31 32  1  0
 24 33  2  0
 33 34  1  0
 33 35  1  0
 35 36  2  0
  8 37  1  0
 37 38  1  0
 38  5  1  0
 36  9  1  0
 18 13  1  0
 21 19  1  0
 36 22  1  0
 31 25  1  0
M  END
>  <molecule_chembl_id>  (95) 
CHEMBL4553629

>  <canonical_smiles>  (95) 
C=CC(=O)N1CCN(c2nnc(-c3ccccc3C3CC3)c3cc(-c4c(O)cccc4F)c(Cl)cc23)CC1

>  <pchembl_value_mean>  (95) 
5.48

>  <inchi>  (95) 
InChI=1S/C30H26ClFN4O2/c1-2-27(38)35-12-14-36(15-13-35)30-22-17-24(31)23(28-25(32)8-5-9-26(28)37)16-21(22)29(33-34-30)20-7-4-3-6-19(20)18-10-11-18/h2-9,16-18,37H,1,10-15H2

$$$$

     RDKit          2D

 47 53  0  0  0  0  0  0  0  0999 V2000
   -3.3818  -11.6074    0.0000 C   0  0  0  0  0  0  0  0  0  0  0  0
   -2.1424  -10.7624    0.0000 C   0  0  0  0  0  0  0  0  0  0  0  0
   -0.7910  -11.4132    0.0000 C   0  0  0  0  0  0  0  0  0  0  0  0
    0.4484  -10.5682    0.0000 C   0  0  0  0  0  0  0  0  0  0  0  0
    1.7998  -11.2191    0.0000 N   0  0  0  0  0  0  0  0  0  0  0  0
    0.3363   -9.0724    0.0000 N   0  0  0  0  0  0  0  0  0  0  0  0
   -1.0152   -8.4216    0.0000 C   0  0  0  0  0  0  0  0  0  0  0  0
   -1.1273   -6.9258    0.0000 C   0  0  0  0  0  0  0  0  0  0  0  0
   -2.4787   -6.2750    0.0000 C   0  0  0  0  0  0  0  0  0  0  0  0
   -2.5908   -4.7792    0.0000 C   0  0  0  0  0  0  0  0  0  0  0  0
   -4.0307   -4.3423    0.0000 N   0  0  0  0  0  0  0  0  0  0  0  0
   -4.2543   -2.8590    0.0000 C   0  0  0  0  0  0  0  0  0  0  0  0
   -5.6506   -2.3110    0.0000 O   0  0  0  0  0  0  0  0  0  0  0  0
   -5.8742   -0.8278    0.0000 C   0  0  0  0  0  0  0  0  0  0  0  0
   -7.2705   -0.2797    0.0000 C   0  0  0  0  0  0  0  0  0  0  0  0
   -8.5346   -1.0873    0.0000 C   0  0  0  0  0  0  0  0  0  0  0  0
   -9.6932   -0.1346    0.0000 C   0  0  0  0  0  0  0  0  0  0  0  0
   -9.1452    1.2617    0.0000 C   0  0  0  0  0  0  0  0  0  0  0  0
   -7.6479    1.1720    0.0000 N   0  0  0  0  0  0  0  0  0  0  0  0
   -6.6952    2.3306    0.0000 C   0  0  0  0  0  0  0  0  0  0  0  0
   -3.0815   -1.9238    0.0000 N   0  0  0  0  0  0  0  0  0  0  0  0
   -1.6852   -2.4718    0.0000 C   0  0  0  0  0  0  0  0  0  0  0  0
   -1.3515   -3.9342    0.0000 C   0  0  0  0  0  0  0  0  0  0  0  0
   -0.0000   -4.5850    0.0000 C   0  0  0  0  0  0  0  0  0  0  0  0
    0.1121   -6.0808    0.0000 C   0  0  0  0  0  0  0  0  0  0  0  0
    1.4635   -6.7316    0.0000 Cl  0  0  0  0  0  0  0  0  0  0  0  0
    1.3515   -3.9342    0.0000 O   0  0  0  0  0  0  0  0  0  0  0  0
    1.6852   -2.4718    0.0000 C   0  0  0  0  0  0  0  0  0  0  0  0
    0.7500   -1.2990    0.0000 C   0  0  0  0  0  0  0  0  0  0  0  0
    1.5000    0.0000    0.0000 C   0  0  0  0  0  0  0  0  0  0  0  0
    0.7500    1.2990    0.0000 N   0  0  0  0  0  0  0  0  0  0  0  0
    1.5000    2.5981    0.0000 C   0  0  0  0  0  0  0  0  0  0  0  0
    0.7500    3.8971    0.0000 O   0  0  0  0  0  0  0  0  0  0  0  0
    3.0000    2.5981    0.0000 C   0  0  0  0  0  0  0  0  0  0  0  0
    3.7500    1.2990    0.0000 C   0  0  0  0  0  0  0  0  0  0  0  0
    5.2500    1.2990    0.0000 C   0  0  0  0  0  0  0  0  0  0  0  0
    6.0000    2.5981    0.0000 N   0  0  0  0  0  0  0  0  0  0  0  0
    5.2500    3.8971    0.0000 C   0  0  0  0  0  0  0  0  0  0  0  0
    3.7500    3.8971    0.0000 C   0  0  0  0  0  0  0  0  0  0  0  0
   -0.7500    1.2990    0.0000 C   0  0  0  0  0  0  0  0  0  0  0  0
   -1.5000    0.0000    0.0000 C   0  0  0  0  0  0  0  0  0  0  0  0
   -0.7500   -1.2990    0.0000 N   0  0  0  0  0  0  0  0  0  0  0  0
   -2.2545   -9.2666    0.0000 C   0  0  0  0  0  0  0  0  0  0  0  0
   -3.6060   -8.6157    0.0000 C   0  0  0  0  0  0  0  0  0  0  0  0
   -4.9574   -7.9649    0.0000 F   0  0  0  0  0  0  0  0  0  0  0  0
   -4.2568   -9.9672    0.0000 F   0  0  0  0  0  0  0  0  0  0  0  0
   -2.9552   -7.2643    0.0000 F   0  0  0  0  0  0  0  0  0  0  0  0
  1  2  1  0
  2  3  2  0
  3  4  1  0
  4  5  1  0
  4  6  2  0
  6  7  1  0
  7  8  1  0
  8  9  2  0
  9 10  1  0
 10 11  2  0
 11 12  1  0
 12 13  1  0
 13 14  1  0
 15 14  1  6
 15 16  1  0
 16 17  1  0
 17 18  1  0
 18 19  1  0
 19 20  1  0
 12 21  2  0
 21 22  1  0
 22 23  2  0
 23 24  1  0
 24 25  2  0
 25 26  1  0
 24 27  1  0
 27 28  1  0
 29 28  1  1
 29 30  1  0
 30 31  1  0
 31 32  1  0
 32 33  2  0
 32 34  1  0
 34 35  1  0
 35 36  1  0
 36 37  1  0
 37 38  1  0
 38 39  1  0
 31 40  1  0
 40 41  1  0
 41 42  1  0
  7 43  2  0
 43 44  1  0
 44 45  1  0
 44 46  1  0
 44 47  1  0
 43  2  1  0
 25  8  1  0
 42 29  1  0
 23 10  1  0
 39 34  1  0
 19 15  1  0
 42 22  1  0
M  END
>  <molecule_chembl_id>  (96) 
CHEMBL5399365

>  <canonical_smiles>  (96) 
Cc1cc(N)nc(-c2cc3nc(OC[C@@H]4CCCN4C)nc4c3c(c2Cl)OC[C@@H]2CN(C(=O)C3CCNCC3)CCN42)c1C(F)(F)F

>  <pchembl_value_mean>  (96) 
5.5

>  <inchi>  (96) 
InChI=1S/C32H38ClF3N8O3/c1-17-12-23(37)40-27(25(17)32(34,35)36)21-13-22-24-28(26(21)33)46-16-20-14-43(30(45)18-5-7-38-8-6-18)10-11-44(20)29(24)41-31(39-22)47-15-19-4-3-9-42(19)2/h12-13,18-20,38H,3-11,14-16H2,1-2H3,(H2,37,40)/t19-,20-/m0/s1

$$$$

     RDKit          2D

160170  0  0  0  0  0  0  0  0999 V2000
    0.0810   -8.7708    0.0000 C   0  0  0  0  0  0  0  0  0  0  0  0
    1.5768   -8.6587    0.0000 C   0  0  0  0  0  0  0  0  0  0  0  0
    2.2276   -7.3072    0.0000 N   0  0  0  0  0  0  0  0  0  0  0  0
    3.7234   -7.1951    0.0000 C   0  0  0  0  0  0  0  0  0  0  0  0
    4.5684   -8.4345    0.0000 O   0  0  0  0  0  0  0  0  0  0  0  0
    4.3742   -5.8437    0.0000 C   0  0  0  0  0  0  0  0  0  0  0  0
    3.1041   -5.0456    0.0000 C   0  0  0  0  0  0  0  0  0  0  0  0
    2.0435   -3.9849    0.0000 N   0  0  0  0  0  0  0  0  0  0  0  0
    1.2454   -2.7149    0.0000 C   0  0  0  0  0  0  0  0  0  0  0  0
   -0.1060   -3.3657    0.0000 O   0  0  0  0  0  0  0  0  0  0  0  0
    0.7500   -1.2990    0.0000 C   0  0  0  0  0  0  0  0  0  0  0  0
    1.5000    0.0000    0.0000 C   0  0  0  0  0  0  0  0  0  0  0  0
    0.7500    1.2990    0.0000 C   0  0  0  0  0  0  0  0  0  0  0  0
   -0.7500    1.2990    0.0000 C   0  0  0  0  0  0  0  0  0  0  0  0
   -1.5000    0.0000    0.0000 C   0  0  0  0  0  0  0  0  0  0  0  0
   -0.7500   -1.2990    0.0000 C   0  0  0  0  0  0  0  0  0  0  0  0
   -2.7514    0.8271    0.0000 C   0  0  0  0  0  0  0  0  0  0  0  0
   -3.7181   -0.3198    0.0000 O   0  0  0  0  0  0  0  0  0  0  0  0
   -3.7782    1.9205    0.0000 N   0  0  0  0  0  0  0  0  0  0  0  0
   -4.5253    3.2212    0.0000 C   0  0  0  0  0  0  0  0  0  0  0  0
   -5.9040    2.6302    0.0000 C   0  0  0  0  0  0  0  0  0  0  0  0
   -6.0815    1.1408    0.0000 C   0  0  0  0  0  0  0  0  0  0  0  0
   -4.8803    0.2423    0.0000 C   0  0  0  0  0  0  0  0  0  0  0  0
   -5.0578   -1.2471    0.0000 C   0  0  0  0  0  0  0  0  0  0  0  0
   -6.4365   -1.8381    0.0000 C   0  0  0  0  0  0  0  0  0  0  0  0
   -6.6140   -3.3276    0.0000 C   0  0  0  0  0  0  0  0  0  0  0  0
   -7.9927   -3.9186    0.0000 C   0  0  0  0  0  0  0  0  0  0  0  0
   -9.1939   -3.0201    0.0000 C   0  0  0  0  0  0  0  0  0  0  0  0
   -9.0163   -1.5307    0.0000 C   0  0  0  0  0  0  0  0  0  0  0  0
   -7.6377   -0.9397    0.0000 C   0  0  0  0  0  0  0  0  0  0  0  0
   -7.4602    0.5498    0.0000 C   0  0  0  0  0  0  0  0  0  0  0  0
   -4.9522    4.6592    0.0000 C   0  0  0  0  0  0  0  0  0  0  0  0
   -6.4300    4.4021    0.0000 O   0  0  0  0  0  0  0  0  0  0  0  0
   -5.0361    6.1568    0.0000 N   0  0  0  0  0  0  0  0  0  0  0  0
   -4.7722    7.6335    0.0000 C   0  0  0  0  0  0  0  0  0  0  0  0
   -6.2082    8.0669    0.0000 C   0  0  0  0  0  0  0  0  0  0  0  0
   -6.5509    9.5273    0.0000 O   0  0  0  0  0  0  0  0  0  0  0  0
   -4.1750    9.0094    0.0000 C   0  0  0  0  0  0  0  0  0  0  0  0
   -5.4723    9.7624    0.0000 O   0  0  0  0  0  0  0  0  0  0  0  0
   -3.2765   10.2106    0.0000 N   0  0  0  0  0  0  0  0  0  0  0  0
   -2.1253   11.1722    0.0000 C   0  0  0  0  0  0  0  0  0  0  0  0
   -2.9467   12.4273    0.0000 C   0  0  0  0  0  0  0  0  0  0  0  0
   -2.2705   13.7662    0.0000 C   0  0  0  0  0  0  0  0  0  0  0  0
   -3.0919   15.0213    0.0000 C   0  0  0  0  0  0  0  0  0  0  0  0
   -2.4156   16.3602    0.0000 N   0  0  0  0  0  0  0  0  0  0  0  0
   -4.5895   14.9375    0.0000 O   0  0  0  0  0  0  0  0  0  0  0  0
   -0.7833   11.8423    0.0000 C   0  0  0  0  0  0  0  0  0  0  0  0
   -1.2931   13.2530    0.0000 O   0  0  0  0  0  0  0  0  0  0  0  0
    0.6770   12.1849    0.0000 N   0  0  0  0  0  0  0  0  0  0  0  0
    2.1770   12.1815    0.0000 C   0  0  0  0  0  0  0  0  0  0  0  0
    2.3546   13.6710    0.0000 C   0  0  0  0  0  0  0  0  0  0  0  0
    1.1534   14.5694    0.0000 C   0  0  0  0  0  0  0  0  0  0  0  0
   -0.2253   13.9785    0.0000 C   0  0  0  0  0  0  0  0  0  0  0  0
   -1.4264   14.8769    0.0000 C   0  0  0  0  0  0  0  0  0  0  0  0
   -1.2489   16.3664    0.0000 C   0  0  0  0  0  0  0  0  0  0  0  0
   -2.4501   17.2648    0.0000 C   0  0  0  0  0  0  0  0  0  0  0  0
   -2.2725   18.7543    0.0000 C   0  0  0  0  0  0  0  0  0  0  0  0
   -0.8939   19.3453    0.0000 C   0  0  0  0  0  0  0  0  0  0  0  0
    0.3073   18.4468    0.0000 C   0  0  0  0  0  0  0  0  0  0  0  0
    0.1298   16.9574    0.0000 C   0  0  0  0  0  0  0  0  0  0  0  0
    1.3309   16.0589    0.0000 C   0  0  0  0  0  0  0  0  0  0  0  0
    3.6358   11.8323    0.0000 C   0  0  0  0  0  0  0  0  0  0  0  0
    4.1520   13.2407    0.0000 O   0  0  0  0  0  0  0  0  0  0  0  0
    4.9747   11.1561    0.0000 N   0  0  0  0  0  0  0  0  0  0  0  0
    6.1216   10.1893    0.0000 C   0  0  0  0  0  0  0  0  0  0  0  0
    7.2150   11.2162    0.0000 C   0  0  0  0  0  0  0  0  0  0  0  0
    8.6510   10.7827    0.0000 C   0  0  0  0  0  0  0  0  0  0  0  0
    9.7444   11.8096    0.0000 C   0  0  0  0  0  0  0  0  0  0  0  0
    9.4018   13.2699    0.0000 C   0  0  0  0  0  0  0  0  0  0  0  0
    7.9658   13.7034    0.0000 C   0  0  0  0  0  0  0  0  0  0  0  0
    6.8724   12.6765    0.0000 C   0  0  0  0  0  0  0  0  0  0  0  0
    7.0146    8.9841    0.0000 C   0  0  0  0  0  0  0  0  0  0  0  0
    8.3154    9.7311    0.0000 O   0  0  0  0  0  0  0  0  0  0  0  0
    7.6056    7.6054    0.0000 N   0  0  0  0  0  0  0  0  0  0  0  0
    8.7712    6.7221    0.0000 C   0  0  0  0  0  0  0  0  0  0  0  0
    7.2806    6.1901    0.0000 C   0  0  0  0  0  0  0  0  0  0  0  0
    5.9458    6.0397    0.0000 C   0  0  0  0  0  0  0  0  0  0  0  0
    4.6779    5.5960    0.0000 C   0  0  0  0  0  0  0  0  0  0  0  0
    3.5406    4.8814    0.0000 C   0  0  0  0  0  0  0  0  0  0  0  0
    2.5907    3.9316    0.0000 N   0  0  0  0  0  0  0  0  0  0  0  0
    1.5931    2.4904    0.0000 C   0  0  0  0  0  0  0  0  0  0  0  0
   -0.1060    3.7487    0.0000 O   0  0  0  0  0  0  0  0  0  0  0  0
   10.1870    6.2267    0.0000 C   0  0  0  0  0  0  0  0  0  0  0  0
   10.8378    7.5782    0.0000 O   0  0  0  0  0  0  0  0  0  0  0  0
   11.4571    5.4287    0.0000 N   0  0  0  0  0  0  0  0  0  0  0  0
   12.5177    4.3680    0.0000 C   0  0  0  0  0  0  0  0  0  0  0  0
   13.6905    5.3032    0.0000 C   0  0  0  0  0  0  0  0  0  0  0  0
   15.0868    4.7552    0.0000 C   0  0  0  0  0  0  0  0  0  0  0  0
   15.3104    3.2720    0.0000 C   0  0  0  0  0  0  0  0  0  0  0  0
   16.7067    2.7240    0.0000 C   0  0  0  0  0  0  0  0  0  0  0  0
   17.8794    3.6592    0.0000 C   0  0  0  0  0  0  0  0  0  0  0  0
   17.6559    5.1425    0.0000 C   0  0  0  0  0  0  0  0  0  0  0  0
   16.2596    5.6905    0.0000 C   0  0  0  0  0  0  0  0  0  0  0  0
   13.3158    3.0979    0.0000 C   0  0  0  0  0  0  0  0  0  0  0  0
   14.6672    3.7487    0.0000 O   0  0  0  0  0  0  0  0  0  0  0  0
   13.8112    1.6821    0.0000 N   0  0  0  0  0  0  0  0  0  0  0  0
   13.9792    0.1915    0.0000 C   0  0  0  0  0  0  0  0  0  0  0  0
   15.4792    0.1915    0.0000 C   0  0  0  0  0  0  0  0  0  0  0  0
   13.8112   -1.2990    0.0000 C   0  0  0  0  0  0  0  0  0  0  0  0
   15.2736   -1.6328    0.0000 O   0  0  0  0  0  0  0  0  0  0  0  0
   13.3158   -2.7149    0.0000 N   0  0  0  0  0  0  0  0  0  0  0  0
   12.5177   -3.9849    0.0000 C   0  0  0  0  0  0  0  0  0  0  0  0
   13.6905   -4.9202    0.0000 C   0  0  0  0  0  0  0  0  0  0  0  0
   13.4669   -6.4034    0.0000 C   0  0  0  0  0  0  0  0  0  0  0  0
   14.6397   -7.3387    0.0000 C   0  0  0  0  0  0  0  0  0  0  0  0
   14.4161   -8.8219    0.0000 N   0  0  0  0  0  0  0  0  0  0  0  0
   15.5889   -9.7571    0.0000 C   0  0  0  0  0  0  0  0  0  0  0  0
   16.9852   -9.2091    0.0000 N   0  0  0  0  0  0  0  0  0  0  0  0
   15.3653  -11.2404    0.0000 N   0  0  0  0  0  0  0  0  0  0  0  0
   11.4571   -5.0456    0.0000 C   0  0  0  0  0  0  0  0  0  0  0  0
   12.6483   -5.9572    0.0000 O   0  0  0  0  0  0  0  0  0  0  0  0
   10.1870   -5.8437    0.0000 N   0  0  0  0  0  0  0  0  0  0  0  0
    8.7712   -6.3391    0.0000 C   0  0  0  0  0  0  0  0  0  0  0  0
    9.1050   -7.8015    0.0000 C   0  0  0  0  0  0  0  0  0  0  0  0
    8.0054   -8.8217    0.0000 C   0  0  0  0  0  0  0  0  0  0  0  0
    8.3392  -10.2841    0.0000 C   0  0  0  0  0  0  0  0  0  0  0  0
    7.2396  -11.3044    0.0000 N   0  0  0  0  0  0  0  0  0  0  0  0
    7.5734  -12.7668    0.0000 C   0  0  0  0  0  0  0  0  0  0  0  0
    9.0711  -12.8489    0.0000 N   0  0  0  0  0  0  0  0  0  0  0  0
    7.1376  -13.4343    0.0000 N   0  0  0  0  0  0  0  0  0  0  0  0
    7.2806   -6.5070    0.0000 C   0  0  0  0  0  0  0  0  0  0  0  0
    7.2806   -8.0070    0.0000 O   0  0  0  0  0  0  0  0  0  0  0  0
    5.7900   -6.3391    0.0000 N   0  0  0  0  0  0  0  0  0  0  0  0
    2.4217   -9.8980    0.0000 C   0  0  0  0  0  0  0  0  0  0  0  0
    3.9175   -9.7859    0.0000 O   0  0  0  0  0  0  0  0  0  0  0  0
    1.7709  -11.2495    0.0000 N   0  0  0  0  0  0  0  0  0  0  0  0
    2.6159  -12.4888    0.0000 C   0  0  0  0  0  0  0  0  0  0  0  0
    1.9651  -13.8403    0.0000 C   0  0  0  0  0  0  0  0  0  0  0  0
    2.8100  -15.0796    0.0000 C   0  0  0  0  0  0  0  0  0  0  0  0
    2.1592  -16.4311    0.0000 C   0  0  0  0  0  0  0  0  0  0  0  0
    3.0042  -17.6705    0.0000 N   0  0  0  0  0  0  0  0  0  0  0  0
    2.3534  -19.0219    0.0000 C   0  0  0  0  0  0  0  0  0  0  0  0
    0.8576  -19.1340    0.0000 N   0  0  0  0  0  0  0  0  0  0  0  0
    3.1984  -20.2613    0.0000 N   0  0  0  0  0  0  0  0  0  0  0  0
    4.1117  -12.3767    0.0000 C   0  0  0  0  0  0  0  0  0  0  0  0
    4.7625  -11.0253    0.0000 O   0  0  0  0  0  0  0  0  0  0  0  0
    4.9567  -13.6161    0.0000 N   0  0  0  0  0  0  0  0  0  0  0  0
    6.4525  -13.5040    0.0000 C   0  0  0  0  0  0  0  0  0  0  0  0
    7.2975  -14.7434    0.0000 C   0  0  0  0  0  0  0  0  0  0  0  0
    8.7933  -14.6313    0.0000 C   0  0  0  0  0  0  0  0  0  0  0  0
    9.6382  -15.8706    0.0000 C   0  0  0  0  0  0  0  0  0  0  0  0
   11.1341  -15.7585    0.0000 C   0  0  0  0  0  0  0  0  0  0  0  0
   11.7849  -14.4071    0.0000 C   0  0  0  0  0  0  0  0  0  0  0  0
   10.9399  -13.1677    0.0000 C   0  0  0  0  0  0  0  0  0  0  0  0
    9.4441  -13.2798    0.0000 C   0  0  0  0  0  0  0  0  0  0  0  0
    7.1033  -12.1525    0.0000 C   0  0  0  0  0  0  0  0  0  0  0  0
    6.2583  -10.9132    0.0000 O   0  0  0  0  0  0  0  0  0  0  0  0
    8.5991  -12.0404    0.0000 N   0  0  0  0  0  0  0  0  0  0  0  0
    9.2499  -10.6890    0.0000 C   0  0  0  0  0  0  0  0  0  0  0  0
   10.7457  -10.5769    0.0000 C   0  0  0  0  0  0  0  0  0  0  0  0
   11.3966   -9.2254    0.0000 C   0  0  0  0  0  0  0  0  0  0  0  0
   12.8924   -9.1134    0.0000 C   0  0  0  0  0  0  0  0  0  0  0  0
   13.5432   -7.7619    0.0000 C   0  0  0  0  0  0  0  0  0  0  0  0
   12.6982   -6.5225    0.0000 C   0  0  0  0  0  0  0  0  0  0  0  0
   13.6567   -5.3687    0.0000 F   0  0  0  0  0  0  0  0  0  0  0  0
   11.2024   -6.6346    0.0000 C   0  0  0  0  0  0  0  0  0  0  0  0
   10.5516   -7.9861    0.0000 C   0  0  0  0  0  0  0  0  0  0  0  0
    8.4050   -9.4496    0.0000 C   0  0  0  0  0  0  0  0  0  0  0  0
    9.3635   -8.2958    0.0000 N   0  0  0  0  0  0  0  0  0  0  0  0
    6.9092   -9.5617    0.0000 O   0  0  0  0  0  0  0  0  0  0  0  0
  2  1  1  6
  2  3  1  0
  3  4  1  0
  4  5  2  0
  6  4  1  6
  6  7  1  0
  7  8  1  0
  8  9  1  0
  9 10  2  0
  9 11  1  0
 11 12  2  0
 12 13  1  0
 13 14  2  0
 14 15  1  0
 15 16  2  0
 15 17  1  0
 17 18  2  0
 17 19  1  0
 19 20  1  0
 20 21  1  6
 21 22  1  0
 22 23  2  0
 23 24  1  0
 24 25  2  0
 25 26  1  0
 26 27  2  0
 27 28  1  0
 28 29  2  0
 29 30  1  0
 30 31  2  0
 20 32  1  0
 32 33  2  0
 32 34  1  0
 34 35  1  0
 35 36  1  1
 36 37  1  0
 35 38  1  0
 38 39  2  0
 38 40  1  0
 40 41  1  0
 41 42  1  1
 42 43  1  0
 43 44  1  0
 44 45  1  0
 44 46  2  0
 41 47  1  0
 47 48  2  0
 47 49  1  0
 49 50  1  0
 50 51  1  6
 51 52  1  0
 52 53  2  0
 53 54  1  0
 54 55  2  0
 55 56  1  0
 56 57  2  0
 57 58  1  0
 58 59  2  0
 59 60  1  0
 60 61  2  0
 50 62  1  0
 62 63  2  0
 62 64  1  0
 64 65  1  0
 65 66  1  1
 66 67  2  0
 67 68  1  0
 68 69  2  0
 69 70  1  0
 70 71  2  0
 65 72  1  0
 72 73  2  0
 72 74  1  0
 75 74  1  6
 75 76  1  0
 76 77  1  0
 77 78  1  0
 78 79  1  0
 79 80  1  0
 80 81  1  0
 81 82  2  0
 75 83  1  0
 83 84  2  0
 83 85  1  0
 85 86  1  0
 86 87  1  6
 87 88  1  0
 88 89  2  0
 89 90  1  0
 90 91  2  0
 91 92  1  0
 92 93  2  0
 86 94  1  0
 94 95  2  0
 94 96  1  0
 96 97  1  0
 97 98  1  1
 97 99  1  0
 99100  2  0
 99101  1  0
101102  1  0
102103  1  6
103104  1  0
104105  1  0
105106  1  0
106107  1  0
107108  2  0
107109  1  0
102110  1  0
110111  2  0
110112  1  0
112113  1  0
113114  1  1
114115  1  0
115116  1  0
116117  1  0
117118  1  0
118119  2  0
118120  1  0
113121  1  0
121122  2  0
121123  1  0
  2124  1  0
124125  2  0
124126  1  0
126127  1  0
127128  1  1
128129  1  0
129130  1  0
130131  1  0
131132  1  0
132133  2  0
132134  1  0
127135  1  0
135136  2  0
135137  1  0
137138  1  0
138139  1  1
139140  1  0
140141  2  0
141142  1  0
142143  2  0
143144  1  0
144145  2  0
138146  1  0
146147  2  0
146148  1  0
148149  1  0
149150  1  6
150151  1  0
151152  2  0
152153  1  0
153154  2  0
154155  1  0
154156  1  0
156157  2  0
149158  1  0
158159  1  0
158160  2  0
123  6  1  0
145140  1  0
157151  1  0
 16 11  1  0
 31 22  1  0
 61 52  1  0
 71 66  1  0
 93 88  1  0
 81 13  1  0
 30 25  1  0
 60 55  1  0
M  END
>  <molecule_chembl_id>  (97) 
CHEMBL4859989

>  <canonical_smiles>  (97) 
C[C@H](NC(=O)[C@@H]1CNC(=O)c2cc3cc(c2)C(=O)N[C@H](Cc2ccc4ccccc4c2)C(=O)N[C@@H](CO)C(=O)N[C@@H](CCC(N)=O)C(=O)N[C@H](Cc2ccc4ccccc4c2)C(=O)N[C@@H](c2ccccc2)C(=O)N[C@@H](CCCCNC3=O)C(=O)N[C@H](Cc2ccccc2)C(=O)N[C@@H](C)C(=O)N[C@H](CCCNC(=N)N)C(=O)N[C@@H](CCCNC(=N)N)C(=O)N1)C(=O)N[C@H](CCCNC(=N)N)C(=O)N[C@H](Cc1ccccc1)C(=O)N[C@@H](Cc1ccc(F)cc1)C(N)=O

>  <pchembl_value_mean>  (97) 
5.51

>  <inchi>  (97) 
InChI=1S/C111H135FN28O20/c1-61-92(144)128-78(32-18-46-122-109(115)116)97(149)130-80(34-20-48-124-111(119)120)100(152)138-87(106(158)127-62(2)93(145)129-79(33-19-47-123-110(117)118)99(151)136-84(53-64-23-8-4-9-24-64)103(155)133-82(91(114)143)51-65-37-41-76(112)42-38-65)59-125-95(147)74-56-73-57-75(58-74)96(148)134-85(54-66-35-39-68-25-12-14-29-71(68)49-66)104(156)139-88(60-141)107(159)131-81(43-44-89(113)142)101(153)137-86(55-67-36-40-69-26-13-15-30-72(69)50-67)105(157)140-90(70-27-10-5-11-28-70)108(160)132-77(31-16-17-45-121-94(73)146)98(150)135-83(102(154)126-61)52-63-21-6-3-7-22-63/h3-15,21-30,35-42,49-50,56-58,61-62,77-88,90,141H,16-20,31-34,43-48,51-55,59-60H2,1-2H3,(H2,113,142)(H2,114,143)(H,121,146)(H,125,147)(H,126,154)(H,127,158)(H,128,144)(H,129,145)(H,130,149)(H,131,159)(H,132,160)(H,133,155)(H,134,148)(H,135,150)(H,136,151)(H,137,153)(H,138,152)(H,139,156)(H,140,157)(H4,115,116,122)(H4,117,118,123)(H4,119,120,124)/t61-,62-,77-,78+,79+,80-,81-,82-,83+,84+,85+,86+,87-,88-,90-/m0/s1

$$$$

     RDKit          2D

 40 47  0  0  0  0  0  0  0  0999 V2000
   -1.5000   -5.1962    0.0000 O   0  0  0  0  0  0  0  0  0  0  0  0
   -0.7500   -3.8971    0.0000 C   0  0  0  0  0  0  0  0  0  0  0  0
    0.7500   -3.8971    0.0000 C   0  0  0  0  0  0  0  0  0  0  0  0
    1.5000   -2.5981    0.0000 C   0  0  0  0  0  0  0  0  0  0  0  0
    3.0000   -2.5981    0.0000 C   0  0  0  0  0  0  0  0  0  0  0  0
    3.7500   -1.2990    0.0000 N   0  0  0  0  0  0  0  0  0  0  0  0
    5.2500   -1.2990    0.0000 C   0  0  0  0  0  0  0  0  0  0  0  0
    6.0000   -2.5981    0.0000 C   0  0  0  0  0  0  0  0  0  0  0  0
    7.5000   -2.5981    0.0000 C   0  0  0  0  0  0  0  0  0  0  0  0
    8.2500   -1.2990    0.0000 N   0  0  0  0  0  0  0  0  0  0  0  0
    9.7500   -1.2990    0.0000 C   0  0  0  0  0  0  0  0  0  0  0  0
   10.5000   -0.0000    0.0000 C   0  0  0  0  0  0  0  0  0  0  0  0
   10.8119    1.4672    0.0000 C   0  0  0  0  0  0  0  0  0  0  0  0
    9.5128    2.2172    0.0000 C   0  0  0  0  0  0  0  0  0  0  0  0
    8.3981    1.2135    0.0000 C   0  0  0  0  0  0  0  0  0  0  0  0
    7.5000    0.0000    0.0000 C   0  0  0  0  0  0  0  0  0  0  0  0
    9.0082   -0.1568    0.0000 N   0  0  0  0  0  0  0  0  0  0  0  0
    8.2500   -3.8971    0.0000 N   0  0  0  0  0  0  0  0  0  0  0  0
    7.5000   -5.1962    0.0000 C   0  0  0  0  0  0  0  0  0  0  0  0
    8.2500   -6.4952    0.0000 O   0  0  0  0  0  0  0  0  0  0  0  0
    7.5000   -7.7942    0.0000 C   0  0  0  0  0  0  0  0  0  0  0  0
    8.2500   -9.0933    0.0000 C   0  0  0  0  0  0  0  0  0  0  0  0
    7.5000  -10.3923    0.0000 N   0  0  0  0  0  0  0  0  0  0  0  0
    6.0082  -10.5491    0.0000 C   0  0  0  0  0  0  0  0  0  0  0  0
    5.6963  -12.0163    0.0000 C   0  0  0  0  0  0  0  0  0  0  0  0
    6.8111  -11.0126    0.0000 C   0  0  0  0  0  0  0  0  0  0  0  0
    8.1101  -11.7626    0.0000 C   0  0  0  0  0  0  0  0  0  0  0  0
    7.7982  -13.2298    0.0000 C   0  0  0  0  0  0  0  0  0  0  0  0
    6.3065  -13.3866    0.0000 O   0  0  0  0  0  0  0  0  0  0  0  0
    6.0000   -5.1962    0.0000 N   0  0  0  0  0  0  0  0  0  0  0  0
    5.2500   -3.8971    0.0000 C   0  0  0  0  0  0  0  0  0  0  0  0
    3.7500   -3.8971    0.0000 C   0  0  0  0  0  0  0  0  0  0  0  0
    3.0000   -5.1962    0.0000 F   0  0  0  0  0  0  0  0  0  0  0  0
    0.7500   -1.2990    0.0000 C   0  0  0  0  0  0  0  0  0  0  0  0
    1.5000    0.0000    0.0000 C   0  0  0  0  0  0  0  0  0  0  0  0
    0.7500    1.2990    0.0000 C   0  0  0  0  0  0  0  0  0  0  0  0
   -0.7500    1.2990    0.0000 C   0  0  0  0  0  0  0  0  0  0  0  0
   -1.5000    0.0000    0.0000 C   0  0  0  0  0  0  0  0  0  0  0  0
   -0.7500   -1.2990    0.0000 C   0  0  0  0  0  0  0  0  0  0  0  0
   -1.5000   -2.5981    0.0000 C   0  0  0  0  0  0  0  0  0  0  0  0
  1  2  1  0
  2  3  2  0
  3  4  1  0
  4  5  1  0
  5  6  2  0
  6  7  1  0
  7  8  2  0
  8  9  1  0
  9 10  1  0
 10 11  1  0
 12 11  1  6
 12 13  1  0
 13 14  1  0
 15 14  1  6
 15 16  1  0
 15 17  1  0
  9 18  2  0
 18 19  1  0
 19 20  1  0
 20 21  1  0
 21 22  1  0
 22 23  1  0
 23 24  1  0
 25 24  1  6
 25 26  1  0
 26 27  1  0
 27 28  1  6
 28 29  1  0
 19 30  2  0
 30 31  1  0
 31 32  2  0
 32 33  1  0
  4 34  2  0
 34 35  1  0
 35 36  2  0
 36 37  1  0
 37 38  2  0
 38 39  1  0
 39 40  2  0
 40  2  1  0
 32  5  1  0
 39 34  1  0
 31  8  1  0
 16 10  1  0
 27 23  1  0
 17 12  1  0
 29 25  1  0
M  END
>  <molecule_chembl_id>  (98) 
CHEMBL5085544

>  <canonical_smiles>  (98) 
Oc1cc(-c2ncc3c(N4C[C@H]5CC[C@@H](C4)N5)nc(OCCN4C[C@@H]5C[C@H]4CO5)nc3c2F)c2ccccc2c1

>  <pchembl_value_mean>  (98) 
5.52

>  <inchi>  (98) 
InChI=1S/C30H31FN6O3/c31-26-27(24-11-21(38)9-17-3-1-2-4-23(17)24)32-12-25-28(26)34-30(39-8-7-36-15-22-10-20(36)16-40-22)35-29(25)37-13-18-5-6-19(14-37)33-18/h1-4,9,11-12,18-20,22,33,38H,5-8,10,13-16H2/t18-,19+,20-,22-/m0/s1

$$$$

     RDKit          2D

 46 52  0  0  0  0  0  0  0  0999 V2000
   -3.3818  -11.6074    0.0000 C   0  0  0  0  0  0  0  0  0  0  0  0
   -2.1424  -10.7624    0.0000 C   0  0  0  0  0  0  0  0  0  0  0  0
   -0.7910  -11.4132    0.0000 C   0  0  0  0  0  0  0  0  0  0  0  0
    0.4484  -10.5682    0.0000 C   0  0  0  0  0  0  0  0  0  0  0  0
    1.7998  -11.2191    0.0000 N   0  0  0  0  0  0  0  0  0  0  0  0
    0.3363   -9.0724    0.0000 N   0  0  0  0  0  0  0  0  0  0  0  0
   -1.0152   -8.4216    0.0000 C   0  0  0  0  0  0  0  0  0  0  0  0
   -1.1273   -6.9258    0.0000 C   0  0  0  0  0  0  0  0  0  0  0  0
   -2.4787   -6.2750    0.0000 C   0  0  0  0  0  0  0  0  0  0  0  0
   -2.5908   -4.7792    0.0000 C   0  0  0  0  0  0  0  0  0  0  0  0
   -4.0307   -4.3423    0.0000 N   0  0  0  0  0  0  0  0  0  0  0  0
   -4.2543   -2.8590    0.0000 C   0  0  0  0  0  0  0  0  0  0  0  0
   -5.6506   -2.3110    0.0000 O   0  0  0  0  0  0  0  0  0  0  0  0
   -5.8742   -0.8278    0.0000 C   0  0  0  0  0  0  0  0  0  0  0  0
   -7.2705   -0.2797    0.0000 C   0  0  0  0  0  0  0  0  0  0  0  0
   -8.5346   -1.0873    0.0000 C   0  0  0  0  0  0  0  0  0  0  0  0
   -9.6932   -0.1346    0.0000 C   0  0  0  0  0  0  0  0  0  0  0  0
   -9.1452    1.2617    0.0000 C   0  0  0  0  0  0  0  0  0  0  0  0
   -7.6479    1.1720    0.0000 N   0  0  0  0  0  0  0  0  0  0  0  0
   -6.6952    2.3306    0.0000 C   0  0  0  0  0  0  0  0  0  0  0  0
   -3.0815   -1.9238    0.0000 N   0  0  0  0  0  0  0  0  0  0  0  0
   -1.6852   -2.4718    0.0000 C   0  0  0  0  0  0  0  0  0  0  0  0
   -1.3515   -3.9342    0.0000 C   0  0  0  0  0  0  0  0  0  0  0  0
   -0.0000   -4.5850    0.0000 C   0  0  0  0  0  0  0  0  0  0  0  0
    0.1121   -6.0808    0.0000 C   0  0  0  0  0  0  0  0  0  0  0  0
    1.4635   -6.7316    0.0000 Cl  0  0  0  0  0  0  0  0  0  0  0  0
    1.3515   -3.9342    0.0000 O   0  0  0  0  0  0  0  0  0  0  0  0
    1.6852   -2.4718    0.0000 C   0  0  0  0  0  0  0  0  0  0  0  0
    0.7500   -1.2990    0.0000 C   0  0  0  0  0  0  0  0  0  0  0  0
    1.5000    0.0000    0.0000 C   0  0  0  0  0  0  0  0  0  0  0  0
    0.7500    1.2990    0.0000 N   0  0  0  0  0  0  0  0  0  0  0  0
    1.5000    2.5981    0.0000 C   0  0  0  0  0  0  0  0  0  0  0  0
    0.7500    3.8971    0.0000 O   0  0  0  0  0  0  0  0  0  0  0  0
    3.0000    2.5981    0.0000 C   0  0  0  0  0  0  0  0  0  0  0  0
    4.0607    1.5374    0.0000 C   0  0  0  0  0  0  0  0  0  0  0  0
    5.1213    2.5981    0.0000 C   0  0  0  0  0  0  0  0  0  0  0  0
    4.0607    3.6587    0.0000 C   0  0  0  0  0  0  0  0  0  0  0  0
    4.0607    5.1587    0.0000 N   0  0  0  0  0  0  0  0  0  0  0  0
   -0.7500    1.2990    0.0000 C   0  0  0  0  0  0  0  0  0  0  0  0
   -1.5000    0.0000    0.0000 C   0  0  0  0  0  0  0  0  0  0  0  0
   -0.7500   -1.2990    0.0000 N   0  0  0  0  0  0  0  0  0  0  0  0
   -2.2545   -9.2666    0.0000 C   0  0  0  0  0  0  0  0  0  0  0  0
   -3.6060   -8.6157    0.0000 C   0  0  0  0  0  0  0  0  0  0  0  0
   -4.9574   -7.9649    0.0000 F   0  0  0  0  0  0  0  0  0  0  0  0
   -4.2568   -9.9672    0.0000 F   0  0  0  0  0  0  0  0  0  0  0  0
   -2.9552   -7.2643    0.0000 F   0  0  0  0  0  0  0  0  0  0  0  0
  1  2  1  0
  2  3  2  0
  3  4  1  0
  4  5  1  0
  4  6  2  0
  6  7  1  0
  7  8  1  0
  8  9  2  0
  9 10  1  0
 10 11  2  0
 11 12  1  0
 12 13  1  0
 13 14  1  0
 15 14  1  6
 15 16  1  0
 16 17  1  0
 17 18  1  0
 18 19  1  0
 19 20  1  0
 12 21  2  0
 21 22  1  0
 22 23  2  0
 23 24  1  0
 24 25  2  0
 25 26  1  0
 24 27  1  0
 27 28  1  0
 29 28  1  1
 29 30  1  0
 30 31  1  0
 31 32  1  0
 32 33  2  0
 34 32  1  1
 34 35  1  0
 35 36  1  0
 36 37  1  0
 37 38  1  6
 31 39  1  0
 39 40  1  0
 40 41  1  0
  7 42  2  0
 42 43  1  0
 43 44  1  0
 43 45  1  0
 43 46  1  0
 42  2  1  0
 25  8  1  0
 41 29  1  0
 23 10  1  0
 37 34  1  0
 19 15  1  0
 41 22  1  0
M  END
>  <molecule_chembl_id>  (99) 
CHEMBL5429318

>  <canonical_smiles>  (99) 
Cc1cc(N)nc(-c2cc3nc(OC[C@@H]4CCCN4C)nc4c3c(c2Cl)OC[C@@H]2CN(C(=O)[C@@H]3CC[C@H]3N)CCN42)c1C(F)(F)F

>  <pchembl_value_mean>  (99) 
5.52

>  <inchi>  (99) 
InChI=1S/C31H36ClF3N8O3/c1-15-10-22(37)39-26(24(15)31(33,34)35)19-11-21-23-27(25(19)32)45-14-17-12-42(29(44)18-5-6-20(18)36)8-9-43(17)28(23)40-30(38-21)46-13-16-4-3-7-41(16)2/h10-11,16-18,20H,3-9,12-14,36H2,1-2H3,(H2,37,39)/t16-,17-,18+,20+/m0/s1

$$$$

     RDKit          2D

 41 47  0  0  0  0  0  0  0  0999 V2000
    4.3713  -10.1694    0.0000 C   0  0  0  0  0  0  0  0  0  0  0  0
    3.6213   -8.8704    0.0000 C   0  0  0  0  0  0  0  0  0  0  0  0
    4.3713   -7.5713    0.0000 C   0  0  0  0  0  0  0  0  0  0  0  0
    5.8713   -7.5713    0.0000 O   0  0  0  0  0  0  0  0  0  0  0  0
    3.6213   -6.2723    0.0000 N   0  0  0  0  0  0  0  0  0  0  0  0
    2.1724   -5.8841    0.0000 C   0  0  0  0  0  0  0  0  0  0  0  0
    2.5607   -4.4352    0.0000 C   0  0  0  0  0  0  0  0  0  0  0  0
    4.0095   -4.8234    0.0000 C   0  0  0  0  0  0  0  0  0  0  0  0
    2.9489   -2.9863    0.0000 C   0  0  0  0  0  0  0  0  0  0  0  0
    1.5000   -2.5981    0.0000 N   0  0  0  0  0  0  0  0  0  0  0  0
    0.7500   -1.2990    0.0000 C   0  0  0  0  0  0  0  0  0  0  0  0
    1.5000    0.0000    0.0000 N   0  0  0  0  0  0  0  0  0  0  0  0
    0.7500    1.2990    0.0000 C   0  0  0  0  0  0  0  0  0  0  0  0
    1.5000    2.5981    0.0000 N   0  0  0  0  0  0  0  0  0  0  0  0
    3.0000    2.5981    0.0000 C   0  0  0  0  0  0  0  0  0  0  0  0
    3.7500    1.2990    0.0000 C   0  0  0  0  0  0  0  0  0  0  0  0
    5.2500    1.2990    0.0000 C   0  0  0  0  0  0  0  0  0  0  0  0
    6.0000    2.5981    0.0000 N   0  0  0  0  0  0  0  0  0  0  0  0
    7.5000    2.5981    0.0000 C   0  0  0  0  0  0  0  0  0  0  0  0
    5.2500    3.8971    0.0000 C   0  0  0  0  0  0  0  0  0  0  0  0
    3.7500    3.8971    0.0000 C   0  0  0  0  0  0  0  0  0  0  0  0
   -0.7500    1.2990    0.0000 N   0  0  0  0  0  0  0  0  0  0  0  0
   -1.5000    0.0000    0.0000 C   0  0  0  0  0  0  0  0  0  0  0  0
   -3.0000    0.0000    0.0000 C   0  0  0  0  0  0  0  0  0  0  0  0
   -3.7500    1.2990    0.0000 F   0  0  0  0  0  0  0  0  0  0  0  0
   -3.7500   -1.2990    0.0000 C   0  0  0  0  0  0  0  0  0  0  0  0
   -5.2500   -1.2990    0.0000 C   0  0  0  0  0  0  0  0  0  0  0  0
   -6.0000    0.0000    0.0000 C   0  0  0  0  0  0  0  0  0  0  0  0
   -5.2500    1.2990    0.0000 C   0  0  0  0  0  0  0  0  0  0  0  0
   -7.5000    0.0000    0.0000 C   0  0  0  0  0  0  0  0  0  0  0  0
   -8.2500   -1.2990    0.0000 C   0  0  0  0  0  0  0  0  0  0  0  0
   -7.5000   -2.5981    0.0000 C   0  0  0  0  0  0  0  0  0  0  0  0
   -7.9635   -4.0247    0.0000 N   0  0  0  0  0  0  0  0  0  0  0  0
   -6.7500   -4.9063    0.0000 N   0  0  0  0  0  0  0  0  0  0  0  0
   -5.5365   -4.0247    0.0000 C   0  0  0  0  0  0  0  0  0  0  0  0
   -6.0000   -2.5981    0.0000 C   0  0  0  0  0  0  0  0  0  0  0  0
   -3.0000   -2.5981    0.0000 C   0  0  0  0  0  0  0  0  0  0  0  0
   -3.7500   -3.8971    0.0000 Cl  0  0  0  0  0  0  0  0  0  0  0  0
   -1.5000   -2.5981    0.0000 C   0  0  0  0  0  0  0  0  0  0  0  0
   -0.7500   -1.2990    0.0000 C   0  0  0  0  0  0  0  0  0  0  0  0
    1.1118   -4.0470    0.0000 C   0  0  0  0  0  0  0  0  0  0  0  0
  1  2  2  0
  2  3  1  0
  3  4  2  0
  3  5  1  0
  5  6  1  0
  6  7  1  0
  7  8  1  0
  7  9  1  0
  9 10  1  0
 10 11  1  0
 11 12  2  0
 12 13  1  0
 13 14  1  0
 14 15  1  0
 15 16  1  0
 16 17  1  0
 17 18  1  0
 18 19  1  0
 18 20  1  0
 20 21  1  0
 13 22  2  0
 22 23  1  0
 23 24  2  0
 24 25  1  0
 24 26  1  0
 26 27  1  0
 27 28  2  0
 28 29  1  0
 28 30  1  0
 30 31  2  0
 31 32  1  0
 32 33  1  0
 33 34  1  0
 34 35  2  0
 35 36  1  0
 26 37  2  0
 37 38  1  0
 37 39  1  0
 39 40  2  0
 10 41  1  0
  8  5  1  0
 40 11  1  0
 41  7  1  0
 21 15  1  0
 40 23  1  0
 36 27  1  0
 36 32  2  0
M  END
>  <molecule_chembl_id>  (100) 
CHEMBL5199429

>  <canonical_smiles>  (100) 
C=CC(=O)N1CC2(C1)CN(c1nc(NC3CCN(C)CC3)nc3c(F)c(-c4c(C)ccc5[nH]ncc45)c(Cl)cc13)C2

>  <pchembl_value_mean>  (100) 
5.52

>  <inchi>  (100) 
InChI=1S/C30H32ClFN8O/c1-4-23(41)39-13-30(14-39)15-40(16-30)28-19-11-21(31)25(24-17(2)5-6-22-20(24)12-33-37-22)26(32)27(19)35-29(36-28)34-18-7-9-38(3)10-8-18/h4-6,11-12,18H,1,7-10,13-16H2,2-3H3,(H,33,37)(H,34,35,36)

$$$$

     RDKit          2D

161171  0  0  0  0  0  0  0  0999 V2000
    2.1592  -16.4311    0.0000 C   0  0  0  0  0  0  0  0  0  0  0  0
    2.8100  -15.0796    0.0000 C   0  0  0  0  0  0  0  0  0  0  0  0
    4.3059  -14.9675    0.0000 C   0  0  0  0  0  0  0  0  0  0  0  0
    1.9651  -13.8403    0.0000 C   0  0  0  0  0  0  0  0  0  0  0  0
    2.6159  -12.4888    0.0000 N   0  0  0  0  0  0  0  0  0  0  0  0
    1.7709  -11.2495    0.0000 C   0  0  0  0  0  0  0  0  0  0  0  0
    0.2751  -11.3616    0.0000 O   0  0  0  0  0  0  0  0  0  0  0  0
    2.4217   -9.8980    0.0000 C   0  0  0  0  0  0  0  0  0  0  0  0
    1.5768   -8.6587    0.0000 C   0  0  0  0  0  0  0  0  0  0  0  0
    0.0810   -8.7708    0.0000 C   0  0  0  0  0  0  0  0  0  0  0  0
   -0.5699  -10.1222    0.0000 C   0  0  0  0  0  0  0  0  0  0  0  0
   -2.0657  -10.2343    0.0000 N   0  0  0  0  0  0  0  0  0  0  0  0
    2.2276   -7.3072    0.0000 N   0  0  0  0  0  0  0  0  0  0  0  0
    3.7234   -7.1951    0.0000 C   0  0  0  0  0  0  0  0  0  0  0  0
    4.5684   -8.4345    0.0000 O   0  0  0  0  0  0  0  0  0  0  0  0
    4.3742   -5.8437    0.0000 C   0  0  0  0  0  0  0  0  0  0  0  0
    3.1041   -5.0456    0.0000 C   0  0  0  0  0  0  0  0  0  0  0  0
    2.0435   -3.9849    0.0000 N   0  0  0  0  0  0  0  0  0  0  0  0
    1.2454   -2.7149    0.0000 C   0  0  0  0  0  0  0  0  0  0  0  0
   -0.1060   -3.3657    0.0000 O   0  0  0  0  0  0  0  0  0  0  0  0
    0.7500   -1.2990    0.0000 C   0  0  0  0  0  0  0  0  0  0  0  0
    1.5000    0.0000    0.0000 C   0  0  0  0  0  0  0  0  0  0  0  0
    0.7500    1.2990    0.0000 C   0  0  0  0  0  0  0  0  0  0  0  0
   -0.7500    1.2990    0.0000 C   0  0  0  0  0  0  0  0  0  0  0  0
   -1.5000    0.0000    0.0000 C   0  0  0  0  0  0  0  0  0  0  0  0
   -0.7500   -1.2990    0.0000 C   0  0  0  0  0  0  0  0  0  0  0  0
   -2.7514    0.8271    0.0000 C   0  0  0  0  0  0  0  0  0  0  0  0
   -3.7181   -0.3198    0.0000 O   0  0  0  0  0  0  0  0  0  0  0  0
   -3.7782    1.9205    0.0000 N   0  0  0  0  0  0  0  0  0  0  0  0
   -4.5253    3.2212    0.0000 C   0  0  0  0  0  0  0  0  0  0  0  0
   -5.9040    2.6302    0.0000 C   0  0  0  0  0  0  0  0  0  0  0  0
   -6.0815    1.1408    0.0000 C   0  0  0  0  0  0  0  0  0  0  0  0
   -4.8803    0.2423    0.0000 C   0  0  0  0  0  0  0  0  0  0  0  0
   -5.0578   -1.2471    0.0000 C   0  0  0  0  0  0  0  0  0  0  0  0
   -6.4365   -1.8381    0.0000 C   0  0  0  0  0  0  0  0  0  0  0  0
   -6.6140   -3.3276    0.0000 C   0  0  0  0  0  0  0  0  0  0  0  0
   -7.9927   -3.9186    0.0000 C   0  0  0  0  0  0  0  0  0  0  0  0
   -9.1939   -3.0201    0.0000 C   0  0  0  0  0  0  0  0  0  0  0  0
   -9.0163   -1.5307    0.0000 C   0  0  0  0  0  0  0  0  0  0  0  0
   -7.6377   -0.9397    0.0000 C   0  0  0  0  0  0  0  0  0  0  0  0
   -7.4602    0.5498    0.0000 C   0  0  0  0  0  0  0  0  0  0  0  0
   -4.9522    4.6592    0.0000 C   0  0  0  0  0  0  0  0  0  0  0  0
   -6.4300    4.4021    0.0000 O   0  0  0  0  0  0  0  0  0  0  0  0
   -5.0361    6.1568    0.0000 N   0  0  0  0  0  0  0  0  0  0  0  0
   -4.7722    7.6335    0.0000 C   0  0  0  0  0  0  0  0  0  0  0  0
   -6.2082    8.0669    0.0000 C   0  0  0  0  0  0  0  0  0  0  0  0
   -6.5509    9.5273    0.0000 O   0  0  0  0  0  0  0  0  0  0  0  0
   -4.1750    9.0094    0.0000 C   0  0  0  0  0  0  0  0  0  0  0  0
   -5.4723    9.7624    0.0000 O   0  0  0  0  0  0  0  0  0  0  0  0
   -3.2765   10.2106    0.0000 N   0  0  0  0  0  0  0  0  0  0  0  0
   -2.1253   11.1722    0.0000 C   0  0  0  0  0  0  0  0  0  0  0  0
   -2.9467   12.4273    0.0000 C   0  0  0  0  0  0  0  0  0  0  0  0
   -2.2705   13.7662    0.0000 C   0  0  0  0  0  0  0  0  0  0  0  0
   -3.0919   15.0213    0.0000 C   0  0  0  0  0  0  0  0  0  0  0  0
   -2.4156   16.3602    0.0000 N   0  0  0  0  0  0  0  0  0  0  0  0
   -4.5895   14.9375    0.0000 O   0  0  0  0  0  0  0  0  0  0  0  0
   -0.7833   11.8423    0.0000 C   0  0  0  0  0  0  0  0  0  0  0  0
   -1.2931   13.2530    0.0000 O   0  0  0  0  0  0  0  0  0  0  0  0
    0.6770   12.1849    0.0000 N   0  0  0  0  0  0  0  0  0  0  0  0
    2.1770   12.1815    0.0000 C   0  0  0  0  0  0  0  0  0  0  0  0
    2.3546   13.6710    0.0000 C   0  0  0  0  0  0  0  0  0  0  0  0
    1.1534   14.5694    0.0000 C   0  0  0  0  0  0  0  0  0  0  0  0
   -0.2253   13.9785    0.0000 C   0  0  0  0  0  0  0  0  0  0  0  0
   -1.4264   14.8769    0.0000 C   0  0  0  0  0  0  0  0  0  0  0  0
   -1.2489   16.3664    0.0000 C   0  0  0  0  0  0  0  0  0  0  0  0
   -2.4501   17.2648    0.0000 C   0  0  0  0  0  0  0  0  0  0  0  0
   -2.2725   18.7543    0.0000 C   0  0  0  0  0  0  0  0  0  0  0  0
   -0.8939   19.3453    0.0000 C   0  0  0  0  0  0  0  0  0  0  0  0
    0.3073   18.4468    0.0000 C   0  0  0  0  0  0  0  0  0  0  0  0
    0.1298   16.9574    0.0000 C   0  0  0  0  0  0  0  0  0  0  0  0
    1.3309   16.0589    0.0000 C   0  0  0  0  0  0  0  0  0  0  0  0
    3.6358   11.8323    0.0000 C   0  0  0  0  0  0  0  0  0  0  0  0
    4.1520   13.2407    0.0000 O   0  0  0  0  0  0  0  0  0  0  0  0
    4.9747   11.1561    0.0000 N   0  0  0  0  0  0  0  0  0  0  0  0
    6.1216   10.1893    0.0000 C   0  0  0  0  0  0  0  0  0  0  0  0
    7.2150   11.2162    0.0000 C   0  0  0  0  0  0  0  0  0  0  0  0
    8.6510   10.7827    0.0000 C   0  0  0  0  0  0  0  0  0  0  0  0
    9.7444   11.8096    0.0000 C   0  0  0  0  0  0  0  0  0  0  0  0
    9.4018   13.2699    0.0000 C   0  0  0  0  0  0  0  0  0  0  0  0
    7.9658   13.7034    0.0000 C   0  0  0  0  0  0  0  0  0  0  0  0
    6.8724   12.6765    0.0000 C   0  0  0  0  0  0  0  0  0  0  0  0
    7.0146    8.9841    0.0000 C   0  0  0  0  0  0  0  0  0  0  0  0
    8.3154    9.7311    0.0000 O   0  0  0  0  0  0  0  0  0  0  0  0
    7.6056    7.6054    0.0000 N   0  0  0  0  0  0  0  0  0  0  0  0
    8.7712    6.7221    0.0000 C   0  0  0  0  0  0  0  0  0  0  0  0
    7.2806    6.1901    0.0000 C   0  0  0  0  0  0  0  0  0  0  0  0
    5.9458    6.0397    0.0000 C   0  0  0  0  0  0  0  0  0  0  0  0
    4.6779    5.5960    0.0000 C   0  0  0  0  0  0  0  0  0  0  0  0
    3.5406    4.8814    0.0000 C   0  0  0  0  0  0  0  0  0  0  0  0
    2.5907    3.9316    0.0000 N   0  0  0  0  0  0  0  0  0  0  0  0
    1.5931    2.4904    0.0000 C   0  0  0  0  0  0  0  0  0  0  0  0
   -0.1060    3.7487    0.0000 O   0  0  0  0  0  0  0  0  0  0  0  0
   10.1870    6.2267    0.0000 C   0  0  0  0  0  0  0  0  0  0  0  0
   10.8378    7.5782    0.0000 O   0  0  0  0  0  0  0  0  0  0  0  0
   11.4571    5.4287    0.0000 N   0  0  0  0  0  0  0  0  0  0  0  0
   12.5177    4.3680    0.0000 C   0  0  0  0  0  0  0  0  0  0  0  0
   13.6905    5.3032    0.0000 C   0  0  0  0  0  0  0  0  0  0  0  0
   15.0868    4.7552    0.0000 C   0  0  0  0  0  0  0  0  0  0  0  0
   15.3104    3.2720    0.0000 C   0  0  0  0  0  0  0  0  0  0  0  0
   16.7067    2.7240    0.0000 C   0  0  0  0  0  0  0  0  0  0  0  0
   17.8794    3.6592    0.0000 C   0  0  0  0  0  0  0  0  0  0  0  0
   17.6559    5.1425    0.0000 C   0  0  0  0  0  0  0  0  0  0  0  0
   16.2596    5.6905    0.0000 C   0  0  0  0  0  0  0  0  0  0  0  0
   13.3158    3.0979    0.0000 C   0  0  0  0  0  0  0  0  0  0  0  0
   14.6672    3.7487    0.0000 O   0  0  0  0  0  0  0  0  0  0  0  0
   13.8112    1.6821    0.0000 N   0  0  0  0  0  0  0  0  0  0  0  0
   13.9792    0.1915    0.0000 C   0  0  0  0  0  0  0  0  0  0  0  0
   15.4792    0.1915    0.0000 C   0  0  0  0  0  0  0  0  0  0  0  0
   13.8112   -1.2990    0.0000 C   0  0  0  0  0  0  0  0  0  0  0  0
   15.2736   -1.6328    0.0000 O   0  0  0  0  0  0  0  0  0  0  0  0
   13.3158   -2.7149    0.0000 N   0  0  0  0  0  0  0  0  0  0  0  0
   12.5177   -3.9849    0.0000 C   0  0  0  0  0  0  0  0  0  0  0  0
   13.6905   -4.9202    0.0000 C   0  0  0  0  0  0  0  0  0  0  0  0
   13.4669   -6.4034    0.0000 C   0  0  0  0  0  0  0  0  0  0  0  0
   14.6397   -7.3387    0.0000 C   0  0  0  0  0  0  0  0  0  0  0  0
   14.4161   -8.8219    0.0000 N   0  0  0  0  0  0  0  0  0  0  0  0
   15.5889   -9.7571    0.0000 C   0  0  0  0  0  0  0  0  0  0  0  0
   16.9852   -9.2091    0.0000 N   0  0  0  0  0  0  0  0  0  0  0  0
   15.3653  -11.2404    0.0000 N   0  0  0  0  0  0  0  0  0  0  0  0
   11.4571   -5.0456    0.0000 C   0  0  0  0  0  0  0  0  0  0  0  0
   12.3923   -6.2184    0.0000 O   0  0  0  0  0  0  0  0  0  0  0  0
   10.1870   -5.8437    0.0000 N   0  0  0  0  0  0  0  0  0  0  0  0
    8.7712   -6.3391    0.0000 C   0  0  0  0  0  0  0  0  0  0  0  0
    9.1050   -7.8015    0.0000 C   0  0  0  0  0  0  0  0  0  0  0  0
    8.0054   -8.8217    0.0000 C   0  0  0  0  0  0  0  0  0  0  0  0
    8.3392  -10.2841    0.0000 C   0  0  0  0  0  0  0  0  0  0  0  0
    7.2396  -11.3044    0.0000 N   0  0  0  0  0  0  0  0  0  0  0  0
    7.5734  -12.7668    0.0000 C   0  0  0  0  0  0  0  0  0  0  0  0
    9.0067  -13.2089    0.0000 N   0  0  0  0  0  0  0  0  0  0  0  0
    6.4738  -13.7870    0.0000 N   0  0  0  0  0  0  0  0  0  0  0  0
    7.2806   -6.5070    0.0000 C   0  0  0  0  0  0  0  0  0  0  0  0
    7.2806   -8.0070    0.0000 O   0  0  0  0  0  0  0  0  0  0  0  0
    5.7900   -6.3391    0.0000 N   0  0  0  0  0  0  0  0  0  0  0  0
    0.4693  -13.9524    0.0000 C   0  0  0  0  0  0  0  0  0  0  0  0
   -0.3757  -12.7130    0.0000 O   0  0  0  0  0  0  0  0  0  0  0  0
   -0.1816  -15.3038    0.0000 N   0  0  0  0  0  0  0  0  0  0  0  0
   -1.6774  -15.4159    0.0000 C   0  0  0  0  0  0  0  0  0  0  0  0
   -2.3282  -16.7674    0.0000 C   0  0  0  0  0  0  0  0  0  0  0  0
   -2.5224  -14.1766    0.0000 C   0  0  0  0  0  0  0  0  0  0  0  0
   -4.0182  -14.2887    0.0000 C   0  0  0  0  0  0  0  0  0  0  0  0
   -4.6690  -15.6401    0.0000 O   0  0  0  0  0  0  0  0  0  0  0  0
   -4.8631  -13.0493    0.0000 N   0  0  0  0  0  0  0  0  0  0  0  0
   -6.3589  -13.1614    0.0000 C   0  0  0  0  0  0  0  0  0  0  0  0
   -7.2039  -11.9220    0.0000 C   0  0  0  0  0  0  0  0  0  0  0  0
   -8.6997  -12.0341    0.0000 C   0  0  0  0  0  0  0  0  0  0  0  0
   -9.6696  -10.8899    0.0000 C   0  0  0  0  0  0  0  0  0  0  0  0
  -11.0576  -11.4587    0.0000 N   0  0  0  0  0  0  0  0  0  0  0  0
  -10.9455  -12.9545    0.0000 C   0  0  0  0  0  0  0  0  0  0  0  0
  -11.9821  -14.0387    0.0000 C   0  0  0  0  0  0  0  0  0  0  0  0
  -11.5614  -15.4785    0.0000 C   0  0  0  0  0  0  0  0  0  0  0  0
  -10.1042  -15.8342    0.0000 C   0  0  0  0  0  0  0  0  0  0  0  0
   -9.0676  -14.7500    0.0000 C   0  0  0  0  0  0  0  0  0  0  0  0
   -9.4883  -13.3102    0.0000 C   0  0  0  0  0  0  0  0  0  0  0  0
   -7.0098  -14.5129    0.0000 C   0  0  0  0  0  0  0  0  0  0  0  0
   -6.1648  -15.7522    0.0000 O   0  0  0  0  0  0  0  0  0  0  0  0
   -8.5056  -14.6249    0.0000 N   0  0  0  0  0  0  0  0  0  0  0  0
   -9.1564  -15.9764    0.0000 C   0  0  0  0  0  0  0  0  0  0  0  0
  -10.6522  -16.0885    0.0000 C   0  0  0  0  0  0  0  0  0  0  0  0
  -11.3030  -17.4400    0.0000 C   0  0  0  0  0  0  0  0  0  0  0  0
  -12.7988  -17.5520    0.0000 N   0  0  0  0  0  0  0  0  0  0  0  0
  -10.4581  -18.6793    0.0000 O   0  0  0  0  0  0  0  0  0  0  0  0
  1  2  1  0
  2  3  1  0
  2  4  1  0
  4  5  1  6
  5  6  1  0
  6  7  2  0
  6  8  1  0
  9  8  1  6
  9 10  1  0
 10 11  1  0
 11 12  1  0
  9 13  1  0
 13 14  1  0
 14 15  2  0
 16 14  1  6
 16 17  1  0
 17 18  1  0
 18 19  1  0
 19 20  2  0
 19 21  1  0
 21 22  2  0
 22 23  1  0
 23 24  2  0
 24 25  1  0
 25 26  2  0
 25 27  1  0
 27 28  2  0
 27 29  1  0
 29 30  1  0
 30 31  1  6
 31 32  1  0
 32 33  2  0
 33 34  1  0
 34 35  2  0
 35 36  1  0
 36 37  2  0
 37 38  1  0
 38 39  2  0
 39 40  1  0
 40 41  2  0
 30 42  1  0
 42 43  2  0
 42 44  1  0
 44 45  1  0
 45 46  1  1
 46 47  1  0
 45 48  1  0
 48 49  2  0
 48 50  1  0
 50 51  1  0
 51 52  1  1
 52 53  1  0
 53 54  1  0
 54 55  1  0
 54 56  2  0
 51 57  1  0
 57 58  2  0
 57 59  1  0
 59 60  1  0
 60 61  1  6
 61 62  1  0
 62 63  2  0
 63 64  1  0
 64 65  2  0
 65 66  1  0
 66 67  2  0
 67 68  1  0
 68 69  2  0
 69 70  1  0
 70 71  2  0
 60 72  1  0
 72 73  2  0
 72 74  1  0
 74 75  1  0
 75 76  1  1
 76 77  2  0
 77 78  1  0
 78 79  2  0
 79 80  1  0
 80 81  2  0
 75 82  1  0
 82 83  2  0
 82 84  1  0
 85 84  1  6
 85 86  1  0
 86 87  1  0
 87 88  1  0
 88 89  1  0
 89 90  1  0
 90 91  1  0
 91 92  2  0
 85 93  1  0
 93 94  2  0
 93 95  1  0
 95 96  1  0
 96 97  1  6
 97 98  1  0
 98 99  2  0
 99100  1  0
100101  2  0
101102  1  0
102103  2  0
 96104  1  0
104105  2  0
104106  1  0
106107  1  0
107108  1  1
107109  1  0
109110  2  0
109111  1  0
111112  1  0
112113  1  6
113114  1  0
114115  1  0
115116  1  0
116117  1  0
117118  2  0
117119  1  0
112120  1  0
120121  2  0
120122  1  0
122123  1  0
123124  1  1
124125  1  0
125126  1  0
126127  1  0
127128  1  0
128129  2  0
128130  1  0
123131  1  0
131132  2  0
131133  1  0
  4134  1  0
134135  2  0
134136  1  0
136137  1  0
137138  1  6
137139  1  0
139140  1  0
140141  2  0
140142  1  0
142143  1  0
143144  1  1
144145  1  0
145146  2  0
146147  1  0
147148  1  0
148149  2  0
149150  1  0
150151  2  0
151152  1  0
152153  2  0
143154  1  0
154155  2  0
154156  1  0
156157  1  0
157158  1  0
158159  1  0
159160  1  0
159161  2  0
133 16  1  0
153145  1  0
 26 21  1  0
 41 32  1  0
 71 62  1  0
 81 76  1  0
103 98  1  0
153148  1  0
 91 23  1  0
 40 35  1  0
 70 65  1  0
M  END
>  <molecule_chembl_id>  (101) 
CHEMBL4847699

>  <canonical_smiles>  (101) 
CC(C)[C@@H](NC(=O)C[C@H](CCN)NC(=O)[C@@H]1CNC(=O)c2cc3cc(c2)C(=O)N[C@H](Cc2ccc4ccccc4c2)C(=O)N[C@@H](CO)C(=O)N[C@@H](CCC(N)=O)C(=O)N[C@H](Cc2ccc4ccccc4c2)C(=O)N[C@@H](c2ccccc2)C(=O)N[C@@H](CCCCNC3=O)C(=O)N[C@H](Cc2ccccc2)C(=O)N[C@@H](C)C(=O)N[C@H](CCCNC(=N)N)C(=O)N[C@@H](CCCNC(=N)N)C(=O)N1)C(=O)N[C@H](C)CC(=O)N[C@H](Cc1c[nH]c2ccccc12)C(=O)NCCC(N)=O

>  <pchembl_value_mean>  (101) 
5.54

>  <inchi>  (101) 
InChI=1S/C112H142N28O21/c1-61(2)93(109(160)126-62(3)47-91(144)129-86(99(150)121-46-41-90(115)143)56-75-58-124-78-30-16-15-29-77(75)78)139-92(145)57-76(40-42-113)128-107(158)87-59-125-97(148)73-53-72-54-74(55-73)98(149)134-84(51-65-34-36-67-23-11-13-27-70(67)48-65)105(156)138-88(60-141)108(159)132-82(38-39-89(114)142)103(154)136-85(52-66-35-37-68-24-12-14-28-71(68)49-66)106(157)140-94(69-25-9-6-10-26-69)110(161)133-79(31-17-18-43-120-96(72)147)101(152)135-83(50-64-21-7-5-8-22-64)104(155)127-63(4)95(146)130-80(32-19-44-122-111(116)117)100(151)131-81(102(153)137-87)33-20-45-123-112(118)119/h5-16,21-30,34-37,48-49,53-55,58,61-63,76,79-88,93-94,124,141H,17-20,31-33,38-47,50-52,56-57,59-60,113H2,1-4H3,(H2,114,142)(H2,115,143)(H,120,147)(H,121,150)(H,125,148)(H,126,160)(H,127,155)(H,128,158)(H,129,144)(H,130,146)(H,131,151)(H,132,159)(H,133,161)(H,134,149)(H,135,152)(H,136,154)(H,137,153)(H,138,156)(H,139,145)(H,140,157)(H4,116,117,122)(H4,118,119,123)/t62-,63+,76+,79+,80-,81+,82+,83-,84-,85-,86-,87+,88+,93-,94+/m1/s1

$$$$

     RDKit          2D

 46 52  0  0  0  0  0  0  0  0999 V2000
   -8.2500    1.2990    0.0000 C   0  0  0  0  0  0  0  0  0  0  0  0
   -7.5000    0.0000    0.0000 C   0  0  0  0  0  0  0  0  0  0  0  0
   -8.2500   -1.2990    0.0000 C   0  0  0  0  0  0  0  0  0  0  0  0
   -7.5000   -2.5981    0.0000 C   0  0  0  0  0  0  0  0  0  0  0  0
   -8.2500   -3.8971    0.0000 N   0  0  0  0  0  0  0  0  0  0  0  0
   -6.0000   -2.5981    0.0000 N   0  0  0  0  0  0  0  0  0  0  0  0
   -5.2500   -1.2990    0.0000 C   0  0  0  0  0  0  0  0  0  0  0  0
   -3.7500   -1.2990    0.0000 C   0  0  0  0  0  0  0  0  0  0  0  0
   -3.0000   -2.5981    0.0000 C   0  0  0  0  0  0  0  0  0  0  0  0
   -3.7500   -3.8971    0.0000 Cl  0  0  0  0  0  0  0  0  0  0  0  0
   -1.5000   -2.5981    0.0000 C   0  0  0  0  0  0  0  0  0  0  0  0
   -0.7500   -1.2990    0.0000 C   0  0  0  0  0  0  0  0  0  0  0  0
    0.7500   -1.2990    0.0000 C   0  0  0  0  0  0  0  0  0  0  0  0
    1.5000    0.0000    0.0000 N   0  0  0  0  0  0  0  0  0  0  0  0
    0.7500    1.2990    0.0000 C   0  0  0  0  0  0  0  0  0  0  0  0
   -0.7500    1.2990    0.0000 N   0  0  0  0  0  0  0  0  0  0  0  0
   -1.5000    0.0000    0.0000 C   0  0  0  0  0  0  0  0  0  0  0  0
   -3.0000    0.0000    0.0000 C   0  0  0  0  0  0  0  0  0  0  0  0
   -3.5331    0.7074    0.0000 F   0  0  0  0  0  0  0  0  0  0  0  0
    1.7703   -2.3986    0.0000 N   0  0  0  0  0  0  0  0  0  0  0  0
    3.1666   -1.8506    0.0000 C   0  0  0  0  0  0  0  0  0  0  0  0
    4.3393   -2.7858    0.0000 C   0  0  0  0  0  0  0  0  0  0  0  0
    4.1158   -4.2691    0.0000 N   0  0  0  0  0  0  0  0  0  0  0  0
    5.2885   -5.2043    0.0000 C   0  0  0  0  0  0  0  0  0  0  0  0
    6.6848   -4.6563    0.0000 O   0  0  0  0  0  0  0  0  0  0  0  0
    5.0649   -6.6876    0.0000 C   0  0  0  0  0  0  0  0  0  0  0  0
    6.2377   -7.6228    0.0000 C   0  0  0  0  0  0  0  0  0  0  0  0
    6.0141   -9.1060    0.0000 C   0  0  0  0  0  0  0  0  0  0  0  0
    4.6178   -9.6541    0.0000 N   0  0  0  0  0  0  0  0  0  0  0  0
    4.3942  -11.1373    0.0000 C   0  0  0  0  0  0  0  0  0  0  0  0
    5.5670  -12.0725    0.0000 C   0  0  0  0  0  0  0  0  0  0  0  0
    6.9633  -11.5245    0.0000 C   0  0  0  0  0  0  0  0  0  0  0  0
    7.1869  -10.0413    0.0000 C   0  0  0  0  0  0  0  0  0  0  0  0
    8.5832   -9.4933    0.0000 C   0  0  0  0  0  0  0  0  0  0  0  0
    9.7559  -10.4285    0.0000 N   0  0  0  0  0  0  0  0  0  0  0  0
    9.5324  -11.9118    0.0000 C   0  0  0  0  0  0  0  0  0  0  0  0
    8.1361  -12.4598    0.0000 C   0  0  0  0  0  0  0  0  0  0  0  0
    2.7194   -4.8171    0.0000 C   0  0  0  0  0  0  0  0  0  0  0  0
    1.5467   -3.8819    0.0000 C   0  0  0  0  0  0  0  0  0  0  0  0
    0.2477   -4.6319    0.0000 C   0  0  0  0  0  0  0  0  0  0  0  0
   -1.1487   -4.0839    0.0000 O   0  0  0  0  0  0  0  0  0  0  0  0
   -6.0000    0.0000    0.0000 C   0  0  0  0  0  0  0  0  0  0  0  0
   -5.2500    1.2990    0.0000 C   0  0  0  0  0  0  0  0  0  0  0  0
   -4.5000    2.5981    0.0000 F   0  0  0  0  0  0  0  0  0  0  0  0
   -4.5426    0.7660    0.0000 F   0  0  0  0  0  0  0  0  0  0  0  0
   -6.5490    2.0490    0.0000 F   0  0  0  0  0  0  0  0  0  0  0  0
  1  2  1  0
  2  3  2  0
  3  4  1  0
  4  5  1  0
  4  6  2  0
  6  7  1  0
  7  8  1  0
  8  9  2  0
  9 10  1  0
  9 11  1  0
 11 12  2  0
 12 13  1  0
 13 14  2  0
 14 15  1  0
 15 16  2  0
 16 17  1  0
 17 18  2  0
 18 19  1  0
 13 20  1  0
 20 21  1  0
 21 22  1  0
 22 23  1  0
 23 24  1  0
 24 25  2  0
 24 26  1  0
 26 27  2  0
 27 28  1  0
 28 29  2  0
 29 30  1  0
 30 31  2  0
 31 32  1  0
 32 33  2  0
 33 34  1  0
 34 35  1  0
 35 36  1  0
 36 37  1  0
 23 38  1  0
 39 38  1  1
 39 40  1  0
 40 41  1  0
  7 42  2  0
 42 43  1  0
 43 44  1  0
 43 45  1  0
 43 46  1  0
 42  2  1  0
 18  8  1  0
 39 20  1  0
 41 11  1  0
 17 12  1  0
 33 28  1  0
 37 32  1  0
M  END
>  <molecule_chembl_id>  (102) 
CHEMBL5413109

>  <canonical_smiles>  (102) 
Cc1cc(N)nc(-c2c(Cl)c3c4c(ncnc4c2F)N2CCN(C(=O)/C=C/c4nccc5c4CNCC5)C[C@H]2CO3)c1C(F)(F)F

>  <pchembl_value_mean>  (102) 
5.57

>  <inchi>  (102) 
InChI=1S/C31H27ClF4N8O2/c1-15-10-20(37)42-27(24(15)31(34,35)36)22-25(32)29-23-28(26(22)33)40-14-41-30(23)44-9-8-43(12-17(44)13-46-29)21(45)3-2-19-18-11-38-6-4-16(18)5-7-39-19/h2-3,5,7,10,14,17,38H,4,6,8-9,11-13H2,1H3,(H2,37,42)/b3-2+/t17-/m0/s1

$$$$

     RDKit          2D

 44 49  0  0  0  0  0  0  0  0999 V2000
   -3.3818  -11.6074    0.0000 C   0  0  0  0  0  0  0  0  0  0  0  0
   -2.1424  -10.7624    0.0000 C   0  0  0  0  0  0  0  0  0  0  0  0
   -0.7910  -11.4132    0.0000 C   0  0  0  0  0  0  0  0  0  0  0  0
    0.4484  -10.5682    0.0000 C   0  0  0  0  0  0  0  0  0  0  0  0
    1.7998  -11.2191    0.0000 N   0  0  0  0  0  0  0  0  0  0  0  0
    0.3363   -9.0724    0.0000 N   0  0  0  0  0  0  0  0  0  0  0  0
   -1.0152   -8.4216    0.0000 C   0  0  0  0  0  0  0  0  0  0  0  0
   -1.1273   -6.9258    0.0000 C   0  0  0  0  0  0  0  0  0  0  0  0
   -2.4787   -6.2750    0.0000 C   0  0  0  0  0  0  0  0  0  0  0  0
   -2.5908   -4.7792    0.0000 C   0  0  0  0  0  0  0  0  0  0  0  0
   -4.0307   -4.3423    0.0000 N   0  0  0  0  0  0  0  0  0  0  0  0
   -4.2543   -2.8590    0.0000 C   0  0  0  0  0  0  0  0  0  0  0  0
   -5.6506   -2.3110    0.0000 O   0  0  0  0  0  0  0  0  0  0  0  0
   -5.8742   -0.8278    0.0000 C   0  0  0  0  0  0  0  0  0  0  0  0
   -7.2705   -0.2797    0.0000 C   0  0  0  0  0  0  0  0  0  0  0  0
   -8.5346   -1.0873    0.0000 C   0  0  0  0  0  0  0  0  0  0  0  0
   -9.6932   -0.1346    0.0000 C   0  0  0  0  0  0  0  0  0  0  0  0
   -9.1452    1.2617    0.0000 C   0  0  0  0  0  0  0  0  0  0  0  0
   -7.6479    1.1720    0.0000 N   0  0  0  0  0  0  0  0  0  0  0  0
   -6.6952    2.3306    0.0000 C   0  0  0  0  0  0  0  0  0  0  0  0
   -3.0815   -1.9238    0.0000 N   0  0  0  0  0  0  0  0  0  0  0  0
   -1.6852   -2.4718    0.0000 C   0  0  0  0  0  0  0  0  0  0  0  0
   -1.3515   -3.9342    0.0000 C   0  0  0  0  0  0  0  0  0  0  0  0
   -0.0000   -4.5850    0.0000 C   0  0  0  0  0  0  0  0  0  0  0  0
    0.1121   -6.0808    0.0000 C   0  0  0  0  0  0  0  0  0  0  0  0
    1.4635   -6.7316    0.0000 Cl  0  0  0  0  0  0  0  0  0  0  0  0
    1.3515   -3.9342    0.0000 O   0  0  0  0  0  0  0  0  0  0  0  0
    1.6852   -2.4718    0.0000 C   0  0  0  0  0  0  0  0  0  0  0  0
    0.7500   -1.2990    0.0000 C   0  0  0  0  0  0  0  0  0  0  0  0
    1.5000    0.0000    0.0000 C   0  0  0  0  0  0  0  0  0  0  0  0
    0.7500    1.2990    0.0000 N   0  0  0  0  0  0  0  0  0  0  0  0
    1.5000    2.5981    0.0000 C   0  0  0  0  0  0  0  0  0  0  0  0
    0.7500    3.8971    0.0000 O   0  0  0  0  0  0  0  0  0  0  0  0
    3.0000    2.5981    0.0000 C   0  0  0  0  0  0  0  0  0  0  0  0
    3.7500    3.8971    0.0000 C   0  0  0  0  0  0  0  0  0  0  0  0
    5.2500    3.8971    0.0000 N   0  0  0  0  0  0  0  0  0  0  0  0
   -0.7500    1.2990    0.0000 C   0  0  0  0  0  0  0  0  0  0  0  0
   -1.5000    0.0000    0.0000 C   0  0  0  0  0  0  0  0  0  0  0  0
   -0.7500   -1.2990    0.0000 N   0  0  0  0  0  0  0  0  0  0  0  0
   -2.2545   -9.2666    0.0000 C   0  0  0  0  0  0  0  0  0  0  0  0
   -3.6060   -8.6157    0.0000 C   0  0  0  0  0  0  0  0  0  0  0  0
   -4.9574   -7.9649    0.0000 F   0  0  0  0  0  0  0  0  0  0  0  0
   -4.2568   -9.9672    0.0000 F   0  0  0  0  0  0  0  0  0  0  0  0
   -2.9552   -7.2643    0.0000 F   0  0  0  0  0  0  0  0  0  0  0  0
  1  2  1  0
  2  3  2  0
  3  4  1  0
  4  5  1  0
  4  6  2  0
  6  7  1  0
  7  8  1  0
  8  9  2  0
  9 10  1  0
 10 11  2  0
 11 12  1  0
 12 13  1  0
 13 14  1  0
 15 14  1  6
 15 16  1  0
 16 17  1  0
 17 18  1  0
 18 19  1  0
 19 20  1  0
 12 21  2  0
 21 22  1  0
 22 23  2  0
 23 24  1  0
 24 25  2  0
 25 26  1  0
 24 27  1  0
 27 28  1  0
 29 28  1  1
 29 30  1  0
 30 31  1  0
 31 32  1  0
 32 33  2  0
 32 34  1  0
 34 35  1  0
 35 36  1  0
 31 37  1  0
 37 38  1  0
 38 39  1  0
  7 40  2  0
 40 41  1  0
 41 42  1  0
 41 43  1  0
 41 44  1  0
 40  2  1  0
 25  8  1  0
 39 29  1  0
 23 10  1  0
 19 15  1  0
 39 22  1  0
M  END
>  <molecule_chembl_id>  (103) 
CHEMBL5403842

>  <canonical_smiles>  (103) 
Cc1cc(N)nc(-c2cc3nc(OC[C@@H]4CCCN4C)nc4c3c(c2Cl)OC[C@@H]2CN(C(=O)CCN)CCN42)c1C(F)(F)F

>  <pchembl_value_mean>  (103) 
5.57

>  <inchi>  (103) 
InChI=1S/C29H34ClF3N8O3/c1-15-10-20(35)37-25(23(15)29(31,32)33)18-11-19-22-26(24(18)30)43-14-17-12-40(21(42)5-6-34)8-9-41(17)27(22)38-28(36-19)44-13-16-4-3-7-39(16)2/h10-11,16-17H,3-9,12-14,34H2,1-2H3,(H2,35,37)/t16-,17-/m0/s1

$$$$

     RDKit          2D

 47 53  0  0  0  0  0  0  0  0999 V2000
   -3.3818  -11.6074    0.0000 C   0  0  0  0  0  0  0  0  0  0  0  0
   -2.1424  -10.7624    0.0000 C   0  0  0  0  0  0  0  0  0  0  0  0
   -0.7910  -11.4132    0.0000 C   0  0  0  0  0  0  0  0  0  0  0  0
    0.4484  -10.5682    0.0000 C   0  0  0  0  0  0  0  0  0  0  0  0
    1.7998  -11.2191    0.0000 N   0  0  0  0  0  0  0  0  0  0  0  0
    0.3363   -9.0724    0.0000 N   0  0  0  0  0  0  0  0  0  0  0  0
   -1.0152   -8.4216    0.0000 C   0  0  0  0  0  0  0  0  0  0  0  0
   -1.1273   -6.9258    0.0000 C   0  0  0  0  0  0  0  0  0  0  0  0
   -2.4787   -6.2750    0.0000 C   0  0  0  0  0  0  0  0  0  0  0  0
   -2.5908   -4.7792    0.0000 C   0  0  0  0  0  0  0  0  0  0  0  0
   -4.0307   -4.3423    0.0000 N   0  0  0  0  0  0  0  0  0  0  0  0
   -4.2543   -2.8590    0.0000 C   0  0  0  0  0  0  0  0  0  0  0  0
   -5.6506   -2.3110    0.0000 O   0  0  0  0  0  0  0  0  0  0  0  0
   -5.8742   -0.8278    0.0000 C   0  0  0  0  0  0  0  0  0  0  0  0
   -7.2705   -0.2797    0.0000 C   0  0  0  0  0  0  0  0  0  0  0  0
   -8.5346   -1.0873    0.0000 C   0  0  0  0  0  0  0  0  0  0  0  0
   -9.6932   -0.1346    0.0000 C   0  0  0  0  0  0  0  0  0  0  0  0
   -9.1452    1.2617    0.0000 C   0  0  0  0  0  0  0  0  0  0  0  0
   -7.6479    1.1720    0.0000 N   0  0  0  0  0  0  0  0  0  0  0  0
   -6.6952    2.3306    0.0000 C   0  0  0  0  0  0  0  0  0  0  0  0
   -3.0815   -1.9238    0.0000 N   0  0  0  0  0  0  0  0  0  0  0  0
   -1.6852   -2.4718    0.0000 C   0  0  0  0  0  0  0  0  0  0  0  0
   -1.3515   -3.9342    0.0000 C   0  0  0  0  0  0  0  0  0  0  0  0
   -0.0000   -4.5850    0.0000 C   0  0  0  0  0  0  0  0  0  0  0  0
    0.1121   -6.0808    0.0000 C   0  0  0  0  0  0  0  0  0  0  0  0
    1.4635   -6.7316    0.0000 Cl  0  0  0  0  0  0  0  0  0  0  0  0
    1.3515   -3.9342    0.0000 O   0  0  0  0  0  0  0  0  0  0  0  0
    1.6852   -2.4718    0.0000 C   0  0  0  0  0  0  0  0  0  0  0  0
    0.7500   -1.2990    0.0000 C   0  0  0  0  0  0  0  0  0  0  0  0
    1.5000    0.0000    0.0000 C   0  0  0  0  0  0  0  0  0  0  0  0
    0.7500    1.2990    0.0000 N   0  0  0  0  0  0  0  0  0  0  0  0
    1.5000    2.5981    0.0000 C   0  0  0  0  0  0  0  0  0  0  0  0
    0.7500    3.8971    0.0000 O   0  0  0  0  0  0  0  0  0  0  0  0
    3.0000    2.5981    0.0000 C   0  0  0  0  0  0  0  0  0  0  0  0
    3.7500    3.8971    0.0000 C   0  0  0  0  0  0  0  0  0  0  0  0
    3.1399    5.2674    0.0000 C   0  0  0  0  0  0  0  0  0  0  0  0
    4.2546    6.2711    0.0000 C   0  0  0  0  0  0  0  0  0  0  0  0
    5.5537    5.5211    0.0000 N   0  0  0  0  0  0  0  0  0  0  0  0
    5.2418    4.0539    0.0000 C   0  0  0  0  0  0  0  0  0  0  0  0
   -0.7500    1.2990    0.0000 C   0  0  0  0  0  0  0  0  0  0  0  0
   -1.5000    0.0000    0.0000 C   0  0  0  0  0  0  0  0  0  0  0  0
   -0.7500   -1.2990    0.0000 N   0  0  0  0  0  0  0  0  0  0  0  0
   -2.2545   -9.2666    0.0000 C   0  0  0  0  0  0  0  0  0  0  0  0
   -3.6060   -8.6157    0.0000 C   0  0  0  0  0  0  0  0  0  0  0  0
   -4.9574   -7.9649    0.0000 F   0  0  0  0  0  0  0  0  0  0  0  0
   -2.9552   -7.2643    0.0000 F   0  0  0  0  0  0  0  0  0  0  0  0
   -4.2568   -9.9672    0.0000 F   0  0  0  0  0  0  0  0  0  0  0  0
  1  2  1  0
  2  3  2  0
  3  4  1  0
  4  5  1  0
  4  6  2  0
  6  7  1  0
  7  8  1  0
  8  9  2  0
  9 10  1  0
 10 11  2  0
 11 12  1  0
 12 13  1  0
 13 14  1  0
 15 14  1  6
 15 16  1  0
 16 17  1  0
 17 18  1  0
 18 19  1  0
 19 20  1  0
 12 21  2  0
 21 22  1  0
 22 23  2  0
 23 24  1  0
 24 25  2  0
 25 26  1  0
 24 27  1  0
 27 28  1  0
 29 28  1  1
 29 30  1  0
 30 31  1  0
 31 32  1  0
 32 33  2  0
 32 34  1  0
 35 34  1  6
 35 36  1  0
 36 37  1  0
 37 38  1  0
 38 39  1  0
 31 40  1  0
 40 41  1  0
 41 42  1  0
  7 43  2  0
 43 44  1  0
 44 45  1  0
 44 46  1  0
 44 47  1  0
 43  2  1  0
 25  8  1  0
 42 29  1  0
 23 10  1  0
 39 35  1  0
 19 15  1  0
 42 22  1  0
M  END
>  <molecule_chembl_id>  (104) 
CHEMBL5403626

>  <canonical_smiles>  (104) 
Cc1cc(N)nc(-c2cc3nc(OC[C@@H]4CCCN4C)nc4c3c(c2Cl)OC[C@@H]2CN(C(=O)C[C@@H]3CCNC3)CCN42)c1C(F)(F)F

>  <pchembl_value_mean>  (104) 
5.58

>  <inchi>  (104) 
InChI=1S/C32H38ClF3N8O3/c1-17-10-23(37)40-28(26(17)32(34,35)36)21-12-22-25-29(27(21)33)46-16-20-14-43(24(45)11-18-5-6-38-13-18)8-9-44(20)30(25)41-31(39-22)47-15-19-4-3-7-42(19)2/h10,12,18-20,38H,3-9,11,13-16H2,1-2H3,(H2,37,40)/t18-,19-,20-/m0/s1

$$$$

     RDKit          2D

 49 56  0  0  0  0  0  0  0  0999 V2000
   -3.3818  -11.6074    0.0000 C   0  0  0  0  0  0  0  0  0  0  0  0
   -2.1424  -10.7624    0.0000 C   0  0  0  0  0  0  0  0  0  0  0  0
   -0.7910  -11.4132    0.0000 C   0  0  0  0  0  0  0  0  0  0  0  0
    0.4484  -10.5682    0.0000 C   0  0  0  0  0  0  0  0  0  0  0  0
    1.7998  -11.2191    0.0000 N   0  0  0  0  0  0  0  0  0  0  0  0
    0.3363   -9.0724    0.0000 N   0  0  0  0  0  0  0  0  0  0  0  0
   -1.0152   -8.4216    0.0000 C   0  0  0  0  0  0  0  0  0  0  0  0
   -1.1273   -6.9258    0.0000 C   0  0  0  0  0  0  0  0  0  0  0  0
   -2.4787   -6.2750    0.0000 C   0  0  0  0  0  0  0  0  0  0  0  0
   -2.5908   -4.7792    0.0000 C   0  0  0  0  0  0  0  0  0  0  0  0
   -4.0307   -4.3423    0.0000 N   0  0  0  0  0  0  0  0  0  0  0  0
   -4.2543   -2.8590    0.0000 C   0  0  0  0  0  0  0  0  0  0  0  0
   -5.6506   -2.3110    0.0000 O   0  0  0  0  0  0  0  0  0  0  0  0
   -5.8742   -0.8278    0.0000 C   0  0  0  0  0  0  0  0  0  0  0  0
   -7.2705   -0.2797    0.0000 C   0  0  0  0  0  0  0  0  0  0  0  0
   -8.5346   -1.0873    0.0000 C   0  0  0  0  0  0  0  0  0  0  0  0
   -9.6932   -0.1346    0.0000 C   0  0  0  0  0  0  0  0  0  0  0  0
   -9.1452    1.2617    0.0000 C   0  0  0  0  0  0  0  0  0  0  0  0
   -7.6479    1.1720    0.0000 N   0  0  0  0  0  0  0  0  0  0  0  0
   -6.6952    2.3306    0.0000 C   0  0  0  0  0  0  0  0  0  0  0  0
   -3.0815   -1.9238    0.0000 N   0  0  0  0  0  0  0  0  0  0  0  0
   -1.6852   -2.4718    0.0000 C   0  0  0  0  0  0  0  0  0  0  0  0
   -1.3515   -3.9342    0.0000 C   0  0  0  0  0  0  0  0  0  0  0  0
   -0.0000   -4.5850    0.0000 C   0  0  0  0  0  0  0  0  0  0  0  0
    0.1121   -6.0808    0.0000 C   0  0  0  0  0  0  0  0  0  0  0  0
    1.4635   -6.7316    0.0000 Cl  0  0  0  0  0  0  0  0  0  0  0  0
    1.3515   -3.9342    0.0000 O   0  0  0  0  0  0  0  0  0  0  0  0
    1.6852   -2.4718    0.0000 C   0  0  0  0  0  0  0  0  0  0  0  0
    0.7500   -1.2990    0.0000 C   0  0  0  0  0  0  0  0  0  0  0  0
    1.5000    0.0000    0.0000 C   0  0  0  0  0  0  0  0  0  0  0  0
    0.7500    1.2990    0.0000 N   0  0  0  0  0  0  0  0  0  0  0  0
    1.5000    2.5981    0.0000 C   0  0  0  0  0  0  0  0  0  0  0  0
    0.7500    3.8971    0.0000 O   0  0  0  0  0  0  0  0  0  0  0  0
    3.0000    2.5981    0.0000 C   0  0  0  0  0  0  0  0  0  0  0  0
    4.2990    1.8481    0.0000 C   0  0  0  0  0  0  0  0  0  0  0  0
    4.2990    3.3481    0.0000 C   0  0  0  0  0  0  0  0  0  0  0  0
    3.5490    4.6471    0.0000 C   0  0  0  0  0  0  0  0  0  0  0  0
    4.2990    5.9462    0.0000 C   0  0  0  0  0  0  0  0  0  0  0  0
    5.7990    5.9462    0.0000 N   0  0  0  0  0  0  0  0  0  0  0  0
    6.5490    4.6471    0.0000 C   0  0  0  0  0  0  0  0  0  0  0  0
    5.7990    3.3481    0.0000 C   0  0  0  0  0  0  0  0  0  0  0  0
   -0.7500    1.2990    0.0000 C   0  0  0  0  0  0  0  0  0  0  0  0
   -1.5000    0.0000    0.0000 C   0  0  0  0  0  0  0  0  0  0  0  0
   -0.7500   -1.2990    0.0000 N   0  0  0  0  0  0  0  0  0  0  0  0
   -2.2545   -9.2666    0.0000 C   0  0  0  0  0  0  0  0  0  0  0  0
   -3.6060   -8.6157    0.0000 C   0  0  0  0  0  0  0  0  0  0  0  0
   -4.9574   -7.9649    0.0000 F   0  0  0  0  0  0  0  0  0  0  0  0
   -2.9552   -7.2643    0.0000 F   0  0  0  0  0  0  0  0  0  0  0  0
   -4.2568   -9.9672    0.0000 F   0  0  0  0  0  0  0  0  0  0  0  0
  1  2  1  0
  2  3  2  0
  3  4  1  0
  4  5  1  0
  4  6  2  0
  6  7  1  0
  7  8  1  0
  8  9  2  0
  9 10  1  0
 10 11  2  0
 11 12  1  0
 12 13  1  0
 13 14  1  0
 15 14  1  6
 15 16  1  0
 16 17  1  0
 17 18  1  0
 18 19  1  0
 19 20  1  0
 12 21  2  0
 21 22  1  0
 22 23  2  0
 23 24  1  0
 24 25  2  0
 25 26  1  0
 24 27  1  0
 27 28  1  0
 29 28  1  1
 29 30  1  0
 30 31  1  0
 31 32  1  0
 32 33  2  0
 32 34  1  0
 34 35  1  0
 35 36  1  0
 36 37  1  0
 37 38  1  0
 38 39  1  0
 39 40  1  0
 40 41  1  0
 31 42  1  0
 42 43  1  0
 43 44  1  0
  7 45  2  0
 45 46  1  0
 46 47  1  0
 46 48  1  0
 46 49  1  0
 45  2  1  0
 25  8  1  0
 44 29  1  0
 23 10  1  0
 36 34  1  0
 19 15  1  0
 44 22  1  0
 41 36  1  0
M  END
>  <molecule_chembl_id>  (105) 
CHEMBL5440407

>  <canonical_smiles>  (105) 
Cc1cc(N)nc(-c2cc3nc(OC[C@@H]4CCCN4C)nc4c3c(c2Cl)OC[C@@H]2CN(C(=O)C3CC35CCNCC5)CCN42)c1C(F)(F)F

>  <pchembl_value_mean>  (105) 
5.62

>  <inchi>  (105) 
InChI=1S/C34H40ClF3N8O3/c1-18-12-24(39)42-28(26(18)34(36,37)38)21-13-23-25-29(27(21)35)48-17-20-15-45(31(47)22-14-33(22)5-7-40-8-6-33)10-11-46(20)30(25)43-32(41-23)49-16-19-4-3-9-44(19)2/h12-13,19-20,22,40H,3-11,14-17H2,1-2H3,(H2,39,42)/t19-,20-,22?/m0/s1

$$$$

     RDKit          2D

 47 54  0  0  0  0  0  0  0  0999 V2000
   -3.3818  -11.6074    0.0000 C   0  0  0  0  0  0  0  0  0  0  0  0
   -2.1424  -10.7624    0.0000 C   0  0  0  0  0  0  0  0  0  0  0  0
   -0.7910  -11.4132    0.0000 C   0  0  0  0  0  0  0  0  0  0  0  0
    0.4484  -10.5682    0.0000 C   0  0  0  0  0  0  0  0  0  0  0  0
    1.7998  -11.2191    0.0000 N   0  0  0  0  0  0  0  0  0  0  0  0
    0.3363   -9.0724    0.0000 N   0  0  0  0  0  0  0  0  0  0  0  0
   -1.0152   -8.4216    0.0000 C   0  0  0  0  0  0  0  0  0  0  0  0
   -1.1273   -6.9258    0.0000 C   0  0  0  0  0  0  0  0  0  0  0  0
   -2.4787   -6.2750    0.0000 C   0  0  0  0  0  0  0  0  0  0  0  0
   -2.5908   -4.7792    0.0000 C   0  0  0  0  0  0  0  0  0  0  0  0
   -4.0307   -4.3423    0.0000 N   0  0  0  0  0  0  0  0  0  0  0  0
   -4.2543   -2.8590    0.0000 C   0  0  0  0  0  0  0  0  0  0  0  0
   -5.6506   -2.3110    0.0000 O   0  0  0  0  0  0  0  0  0  0  0  0
   -5.8742   -0.8278    0.0000 C   0  0  0  0  0  0  0  0  0  0  0  0
   -7.2705   -0.2797    0.0000 C   0  0  0  0  0  0  0  0  0  0  0  0
   -8.5346   -1.0873    0.0000 C   0  0  0  0  0  0  0  0  0  0  0  0
   -9.6932   -0.1346    0.0000 C   0  0  0  0  0  0  0  0  0  0  0  0
   -9.1452    1.2617    0.0000 C   0  0  0  0  0  0  0  0  0  0  0  0
   -7.6479    1.1720    0.0000 N   0  0  0  0  0  0  0  0  0  0  0  0
   -6.6952    2.3306    0.0000 C   0  0  0  0  0  0  0  0  0  0  0  0
   -3.0815   -1.9238    0.0000 N   0  0  0  0  0  0  0  0  0  0  0  0
   -1.6852   -2.4718    0.0000 C   0  0  0  0  0  0  0  0  0  0  0  0
   -1.3515   -3.9342    0.0000 C   0  0  0  0  0  0  0  0  0  0  0  0
   -0.0000   -4.5850    0.0000 C   0  0  0  0  0  0  0  0  0  0  0  0
    0.1121   -6.0808    0.0000 C   0  0  0  0  0  0  0  0  0  0  0  0
    1.4635   -6.7316    0.0000 Cl  0  0  0  0  0  0  0  0  0  0  0  0
    1.3515   -3.9342    0.0000 O   0  0  0  0  0  0  0  0  0  0  0  0
    1.6852   -2.4718    0.0000 C   0  0  0  0  0  0  0  0  0  0  0  0
    0.7500   -1.2990    0.0000 C   0  0  0  0  0  0  0  0  0  0  0  0
    1.5000    0.0000    0.0000 C   0  0  0  0  0  0  0  0  0  0  0  0
    0.7500    1.2990    0.0000 N   0  0  0  0  0  0  0  0  0  0  0  0
    1.5000    2.5981    0.0000 C   0  0  0  0  0  0  0  0  0  0  0  0
    0.7500    3.8971    0.0000 O   0  0  0  0  0  0  0  0  0  0  0  0
    3.0000    2.5981    0.0000 C   0  0  0  0  0  0  0  0  0  0  0  0
    4.2990    1.8481    0.0000 C   0  0  0  0  0  0  0  0  0  0  0  0
    4.2990    3.3481    0.0000 C   0  0  0  0  0  0  0  0  0  0  0  0
    3.9108    4.7970    0.0000 C   0  0  0  0  0  0  0  0  0  0  0  0
    5.3597    5.1852    0.0000 N   0  0  0  0  0  0  0  0  0  0  0  0
    5.7479    3.7363    0.0000 C   0  0  0  0  0  0  0  0  0  0  0  0
   -0.7500    1.2990    0.0000 C   0  0  0  0  0  0  0  0  0  0  0  0
   -1.5000    0.0000    0.0000 C   0  0  0  0  0  0  0  0  0  0  0  0
   -0.7500   -1.2990    0.0000 N   0  0  0  0  0  0  0  0  0  0  0  0
   -2.2545   -9.2666    0.0000 C   0  0  0  0  0  0  0  0  0  0  0  0
   -3.6060   -8.6157    0.0000 C   0  0  0  0  0  0  0  0  0  0  0  0
   -4.9574   -7.9649    0.0000 F   0  0  0  0  0  0  0  0  0  0  0  0
   -4.2568   -9.9672    0.0000 F   0  0  0  0  0  0  0  0  0  0  0  0
   -2.9552   -7.2643    0.0000 F   0  0  0  0  0  0  0  0  0  0  0  0
  1  2  1  0
  2  3  2  0
  3  4  1  0
  4  5  1  0
  4  6  2  0
  6  7  1  0
  7  8  1  0
  8  9  2  0
  9 10  1  0
 10 11  2  0
 11 12  1  0
 12 13  1  0
 13 14  1  0
 15 14  1  6
 15 16  1  0
 16 17  1  0
 17 18  1  0
 18 19  1  0
 19 20  1  0
 12 21  2  0
 21 22  1  0
 22 23  2  0
 23 24  1  0
 24 25  2  0
 25 26  1  0
 24 27  1  0
 27 28  1  0
 29 28  1  1
 29 30  1  0
 30 31  1  0
 31 32  1  0
 32 33  2  0
 32 34  1  0
 34 35  1  0
 35 36  1  0
 36 37  1  0
 37 38  1  0
 38 39  1  0
 31 40  1  0
 40 41  1  0
 41 42  1  0
  7 43  2  0
 43 44  1  0
 44 45  1  0
 44 46  1  0
 44 47  1  0
 43  2  1  0
 25  8  1  0
 42 29  1  0
 23 10  1  0
 36 34  1  0
 19 15  1  0
 42 22  1  0
 39 36  1  0
M  END
>  <molecule_chembl_id>  (106) 
CHEMBL5432250

>  <canonical_smiles>  (106) 
Cc1cc(N)nc(-c2cc3nc(OC[C@@H]4CCCN4C)nc4c3c(c2Cl)OC[C@@H]2CN(C(=O)C3CC35CNC5)CCN42)c1C(F)(F)F

>  <pchembl_value_mean>  (106) 
5.62

>  <inchi>  (106) 
InChI=1S/C32H36ClF3N8O3/c1-16-8-22(37)40-26(24(16)32(34,35)36)19-9-21-23-27(25(19)33)46-13-18-11-43(29(45)20-10-31(20)14-38-15-31)6-7-44(18)28(23)41-30(39-21)47-12-17-4-3-5-42(17)2/h8-9,17-18,20,38H,3-7,10-15H2,1-2H3,(H2,37,40)/t17-,18-,20?/m0/s1

$$$$

     RDKit          2D

 89 93  0  0  0  0  0  0  0  0999 V2000
   -8.5415  -13.0542    0.0000 C   0  0  0  0  0  0  0  0  0  0  0  0
   -7.1771  -12.4311    0.0000 C   0  0  0  0  0  0  0  0  0  0  0  0
   -6.4271  -13.7301    0.0000 N   0  0  0  0  0  0  0  0  0  0  0  0
   -5.4448  -14.8637    0.0000 C   0  0  0  0  0  0  0  0  0  0  0  0
   -6.4799  -15.9493    0.0000 O   0  0  0  0  0  0  0  0  0  0  0  0
   -4.2657  -15.7910    0.0000 C   0  0  0  0  0  0  0  0  0  0  0  0
   -5.0767  -17.0528    0.0000 C   0  0  0  0  0  0  0  0  0  0  0  0
   -6.5750  -16.9815    0.0000 C   0  0  0  0  0  0  0  0  0  0  0  0
   -7.2623  -15.6482    0.0000 C   0  0  0  0  0  0  0  0  0  0  0  0
   -8.7606  -15.5768    0.0000 C   0  0  0  0  0  0  0  0  0  0  0  0
   -9.5716  -16.8387    0.0000 C   0  0  0  0  0  0  0  0  0  0  0  0
  -11.0699  -16.7673    0.0000 O   0  0  0  0  0  0  0  0  0  0  0  0
   -8.8842  -18.1720    0.0000 C   0  0  0  0  0  0  0  0  0  0  0  0
   -7.3859  -18.2433    0.0000 C   0  0  0  0  0  0  0  0  0  0  0  0
   -2.9324  -16.4783    0.0000 N   0  0  0  0  0  0  0  0  0  0  0  0
   -1.4932  -16.9009    0.0000 C   0  0  0  0  0  0  0  0  0  0  0  0
   -1.7771  -18.3738    0.0000 O   0  0  0  0  0  0  0  0  0  0  0  0
   -0.0000  -17.0435    0.0000 C   0  0  0  0  0  0  0  0  0  0  0  0
   -0.0000  -18.5435    0.0000 C   0  0  0  0  0  0  0  0  0  0  0  0
   -1.2990  -19.2935    0.0000 C   0  0  0  0  0  0  0  0  0  0  0  0
   -1.2990  -20.7935    0.0000 C   0  0  0  0  0  0  0  0  0  0  0  0
   -2.5981  -21.5435    0.0000 N   0  0  0  0  0  0  0  0  0  0  0  0
   -2.5981  -23.0435    0.0000 C   0  0  0  0  0  0  0  0  0  0  0  0
   -1.2990  -23.7935    0.0000 N   0  0  0  0  0  0  0  0  0  0  0  0
   -3.8971  -23.7935    0.0000 N   0  0  0  0  0  0  0  0  0  0  0  0
    1.4932  -16.9009    0.0000 N   0  0  0  0  0  0  0  0  0  0  0  0
    2.9324  -16.4783    0.0000 C   0  0  0  0  0  0  0  0  0  0  0  0
    3.4899  -17.8708    0.0000 O   0  0  0  0  0  0  0  0  0  0  0  0
    4.2657  -15.7910    0.0000 C   0  0  0  0  0  0  0  0  0  0  0  0
    5.0767  -17.0528    0.0000 C   0  0  0  0  0  0  0  0  0  0  0  0
    4.3893  -18.3861    0.0000 C   0  0  0  0  0  0  0  0  0  0  0  0
    6.5750  -16.9815    0.0000 O   0  0  0  0  0  0  0  0  0  0  0  0
    5.4448  -14.8637    0.0000 N   0  0  0  0  0  0  0  0  0  0  0  0
    6.4271  -13.7301    0.0000 C   0  0  0  0  0  0  0  0  0  0  0  0
    7.6489  -14.6002    0.0000 O   0  0  0  0  0  0  0  0  0  0  0  0
    7.1771  -12.4311    0.0000 C   0  0  0  0  0  0  0  0  0  0  0  0
    7.6677  -11.0136    0.0000 N   0  0  0  0  0  0  0  0  0  0  0  0
    7.8811   -9.5288    0.0000 C   0  0  0  0  0  0  0  0  0  0  0  0
    9.3794   -9.6002    0.0000 O   0  0  0  0  0  0  0  0  0  0  0  0
    7.8098   -8.0305    0.0000 C   0  0  0  0  0  0  0  0  0  0  0  0
    9.2945   -7.8170    0.0000 C   0  0  0  0  0  0  0  0  0  0  0  0
   10.2217   -8.9961    0.0000 C   0  0  0  0  0  0  0  0  0  0  0  0
   11.7065   -8.7827    0.0000 C   0  0  0  0  0  0  0  0  0  0  0  0
   12.6337   -9.9617    0.0000 N   0  0  0  0  0  0  0  0  0  0  0  0
   12.2640   -7.3901    0.0000 O   0  0  0  0  0  0  0  0  0  0  0  0
    7.4561   -6.5728    0.0000 N   0  0  0  0  0  0  0  0  0  0  0  0
    6.8330   -5.2084    0.0000 C   0  0  0  0  0  0  0  0  0  0  0  0
    8.1320   -4.4584    0.0000 O   0  0  0  0  0  0  0  0  0  0  0  0
    5.9629   -3.9865    0.0000 C   0  0  0  0  0  0  0  0  0  0  0  0
    4.8773   -2.9514    0.0000 C   0  0  0  0  0  0  0  0  0  0  0  0
    5.8046   -1.7723    0.0000 C   0  0  0  0  0  0  0  0  0  0  0  0
    7.2893   -1.9858    0.0000 C   0  0  0  0  0  0  0  0  0  0  0  0
    8.2165   -0.8067    0.0000 C   0  0  0  0  0  0  0  0  0  0  0  0
    9.7013   -1.0202    0.0000 C   0  0  0  0  0  0  0  0  0  0  0  0
   10.6285    0.1589    0.0000 C   0  0  0  0  0  0  0  0  0  0  0  0
   10.0710    1.5515    0.0000 C   0  0  0  0  0  0  0  0  0  0  0  0
    8.5863    1.7649    0.0000 C   0  0  0  0  0  0  0  0  0  0  0  0
    7.6590    0.5859    0.0000 C   0  0  0  0  0  0  0  0  0  0  0  0
    3.6154   -2.1404    0.0000 N   0  0  0  0  0  0  0  0  0  0  0  0
    2.2229   -1.5829    0.0000 C   0  0  0  0  0  0  0  0  0  0  0  0
    2.6455   -0.1437    0.0000 O   0  0  0  0  0  0  0  0  0  0  0  0
    0.7500   -1.2990    0.0000 C   0  0  0  0  0  0  0  0  0  0  0  0
    1.5000    0.0000    0.0000 C   0  0  0  0  0  0  0  0  0  0  0  0
    0.7500    1.2990    0.0000 C   0  0  0  0  0  0  0  0  0  0  0  0
   -0.7500    1.2990    0.0000 C   0  0  0  0  0  0  0  0  0  0  0  0
   -1.5000    0.0000    0.0000 C   0  0  0  0  0  0  0  0  0  0  0  0
   -0.7500   -1.2990    0.0000 N   0  0  0  0  0  0  0  0  0  0  0  0
   -2.2229   -1.5829    0.0000 C   0  0  0  0  0  0  0  0  0  0  0  0
   -2.6455   -0.1437    0.0000 O   0  0  0  0  0  0  0  0  0  0  0  0
   -3.6154   -2.1404    0.0000 C   0  0  0  0  0  0  0  0  0  0  0  0
   -4.3028   -0.8072    0.0000 O   0  0  0  0  0  0  0  0  0  0  0  0
   -4.8773   -2.9514    0.0000 C   0  0  0  0  0  0  0  0  0  0  0  0
   -6.2869   -2.4383    0.0000 C   0  0  0  0  0  0  0  0  0  0  0  0
   -5.0436   -1.4606    0.0000 C   0  0  0  0  0  0  0  0  0  0  0  0
   -5.9629   -3.9865    0.0000 C   0  0  0  0  0  0  0  0  0  0  0  0
   -6.8330   -5.2084    0.0000 O   0  0  0  0  0  0  0  0  0  0  0  0
   -7.4561   -6.5728    0.0000 C   0  0  0  0  0  0  0  0  0  0  0  0
   -8.8736   -6.0822    0.0000 O   0  0  0  0  0  0  0  0  0  0  0  0
   -7.8098   -8.0305    0.0000 C   0  0  0  0  0  0  0  0  0  0  0  0
   -9.2945   -7.8170    0.0000 C   0  0  0  0  0  0  0  0  0  0  0  0
   -9.8520   -6.4245    0.0000 C   0  0  0  0  0  0  0  0  0  0  0  0
   -8.9248   -5.2454    0.0000 C   0  0  0  0  0  0  0  0  0  0  0  0
   -9.4823   -3.8529    0.0000 C   0  0  0  0  0  0  0  0  0  0  0  0
  -10.9670   -3.6394    0.0000 C   0  0  0  0  0  0  0  0  0  0  0  0
  -11.8942   -4.8185    0.0000 C   0  0  0  0  0  0  0  0  0  0  0  0
  -11.3367   -6.2110    0.0000 C   0  0  0  0  0  0  0  0  0  0  0  0
   -7.8811   -9.5288    0.0000 N   0  0  0  0  0  0  0  0  0  0  0  0
   -7.6677  -11.0136    0.0000 C   0  0  0  0  0  0  0  0  0  0  0  0
   -9.1254  -11.3672    0.0000 O   0  0  0  0  0  0  0  0  0  0  0  0
  2  1  1  1
  2  3  1  0
  3  4  1  0
  4  5  2  0
  4  6  1  0
  6  7  1  1
  7  8  1  0
  8  9  2  0
  9 10  1  0
 10 11  2  0
 11 12  1  0
 11 13  1  0
 13 14  2  0
  6 15  1  0
 15 16  1  0
 16 17  2  0
 16 18  1  0
 18 19  1  1
 19 20  1  0
 20 21  1  0
 21 22  1  0
 22 23  1  0
 23 24  2  0
 23 25  1  0
 18 26  1  0
 26 27  1  0
 27 28  2  0
 27 29  1  0
 29 30  1  0
 30 31  1  1
 30 32  1  0
 29 33  1  6
 33 34  1  0
 34 35  2  0
 34 36  1  0
 36 37  1  0
 37 38  1  0
 38 39  2  0
 38 40  1  0
 40 41  1  1
 41 42  1  0
 42 43  1  0
 43 44  1  0
 43 45  2  0
 40 46  1  0
 46 47  1  0
 47 48  2  0
 47 49  1  0
 49 50  1  0
 50 51  1  6
 51 52  1  0
 52 53  1  0
 53 54  2  0
 54 55  1  0
 55 56  2  0
 56 57  1  0
 57 58  2  0
 50 59  1  0
 59 60  1  0
 60 61  2  0
 60 62  1  0
 62 63  1  1
 63 64  1  0
 64 65  1  0
 65 66  1  0
 66 67  1  0
 67 68  1  0
 68 69  2  0
 68 70  1  0
 70 71  2  0
 70 72  1  0
 72 73  1  0
 72 74  1  0
 72 75  1  0
 75 76  1  0
 76 77  1  0
 77 78  2  0
 77 79  1  0
 79 80  1  1
 80 81  1  0
 81 82  2  0
 82 83  1  0
 83 84  2  0
 84 85  1  0
 85 86  2  0
 79 87  1  0
 87 88  1  0
 88 89  2  0
 88  2  1  0
 14  8  1  0
 58 53  1  0
 67 62  1  0
 86 81  1  0
M  END
>  <molecule_chembl_id>  (107) 
CHEMBL3218644

>  <canonical_smiles>  (107) 
C[C@@H]1NC(=O)[C@H](Cc2ccc(O)cc2)NC(=O)[C@H](CCCNC(=N)N)NC(=O)[C@@H]([C@H](C)O)NC(=O)CNC(=O)[C@H](CCC(N)=O)NC(=O)C[C@@H](CCc2ccccc2)NC(=O)[C@@H]2CCCCN2C(=O)C(=O)C(C)(C)COC(=O)[C@H](Cc2ccccc2)NC1=O

>  <pchembl_value_mean>  (107) 
5.64

>  <inchi>  (107) 
InChI=1S/C61H83N13O15/c1-35-52(81)72-45(31-38-16-9-6-10-17-38)59(88)89-34-61(3,4)51(80)58(87)74-29-12-11-19-46(74)56(85)68-40(23-20-37-14-7-5-8-15-37)32-48(78)69-43(26-27-47(62)77)53(82)66-33-49(79)73-50(36(2)75)57(86)70-42(18-13-28-65-60(63)64)54(83)71-44(55(84)67-35)30-39-21-24-41(76)25-22-39/h5-10,14-17,21-22,24-25,35-36,40,42-46,50,75-76H,11-13,18-20,23,26-34H2,1-4H3,(H2,62,77)(H,66,82)(H,67,84)(H,68,85)(H,69,78)(H,70,86)(H,71,83)(H,72,81)(H,73,79)(H4,63,64,65)/t35-,36-,40+,42-,43-,44-,45-,46-,50+/m0/s1

$$$$

     RDKit          2D

139144  0  0  0  0  0  0  0  0999 V2000
    7.4592   15.3348    0.0000 C   0  0  0  0  0  0  0  0  0  0  0  0
    6.1077   14.6840    0.0000 C   0  0  0  0  0  0  0  0  0  0  0  0
    5.9956   13.1882    0.0000 C   0  0  0  0  0  0  0  0  0  0  0  0
    7.2350   12.3432    0.0000 C   0  0  0  0  0  0  0  0  0  0  0  0
    4.6442   12.5373    0.0000 C   0  0  0  0  0  0  0  0  0  0  0  0
    5.1713   11.1330    0.0000 N   0  0  0  0  0  0  0  0  0  0  0  0
    5.4391    9.6571    0.0000 C   0  0  0  0  0  0  0  0  0  0  0  0
    6.9331    9.7915    0.0000 O   0  0  0  0  0  0  0  0  0  0  0  0
    5.4391    8.1571    0.0000 C   0  0  0  0  0  0  0  0  0  0  0  0
    6.9331    8.0226    0.0000 C   0  0  0  0  0  0  0  0  0  0  0  0
    7.5636    6.6616    0.0000 C   0  0  0  0  0  0  0  0  0  0  0  0
    6.7002    5.4350    0.0000 C   0  0  0  0  0  0  0  0  0  0  0  0
    7.3307    4.0740    0.0000 C   0  0  0  0  0  0  0  0  0  0  0  0
    8.8247    3.9395    0.0000 C   0  0  0  0  0  0  0  0  0  0  0  0
    9.4552    2.5785    0.0000 O   0  0  0  0  0  0  0  0  0  0  0  0
    9.6881    5.1661    0.0000 C   0  0  0  0  0  0  0  0  0  0  0  0
    9.0576    6.5271    0.0000 C   0  0  0  0  0  0  0  0  0  0  0  0
    5.1713    6.6812    0.0000 N   0  0  0  0  0  0  0  0  0  0  0  0
    4.6442    5.2768    0.0000 C   0  0  0  0  0  0  0  0  0  0  0  0
    5.9956    4.6260    0.0000 O   0  0  0  0  0  0  0  0  0  0  0  0
    3.8748    3.9892    0.0000 C   0  0  0  0  0  0  0  0  0  0  0  0
    5.0884    3.1075    0.0000 C   0  0  0  0  0  0  0  0  0  0  0  0
    4.9316    1.6157    0.0000 C   0  0  0  0  0  0  0  0  0  0  0  0
    6.1451    0.7340    0.0000 C   0  0  0  0  0  0  0  0  0  0  0  0
    3.5613    1.0056    0.0000 C   0  0  0  0  0  0  0  0  0  0  0  0
    2.8879    2.8596    0.0000 N   0  0  0  0  0  0  0  0  0  0  0  0
    1.7152    1.9243    0.0000 C   0  0  0  0  0  0  0  0  0  0  0  0
    2.5415    0.6725    0.0000 O   0  0  0  0  0  0  0  0  0  0  0  0
    0.3943    1.2135    0.0000 C   0  0  0  0  0  0  0  0  0  0  0  0
    1.2760    0.0000    0.0000 C   0  0  0  0  0  0  0  0  0  0  0  0
    0.3943   -1.2135    0.0000 C   0  0  0  0  0  0  0  0  0  0  0  0
   -1.0323   -0.7500    0.0000 C   0  0  0  0  0  0  0  0  0  0  0  0
   -1.0323    0.7500    0.0000 N   0  0  0  0  0  0  0  0  0  0  0  0
   -2.5187    0.5487    0.0000 C   0  0  0  0  0  0  0  0  0  0  0  0
   -2.4514   -0.9498    0.0000 O   0  0  0  0  0  0  0  0  0  0  0  0
   -4.0172    0.6159    0.0000 C   0  0  0  0  0  0  0  0  0  0  0  0
   -4.2186   -0.8705    0.0000 N   0  0  0  0  0  0  0  0  0  0  0  0
   -5.6065   -1.4393    0.0000 C   0  0  0  0  0  0  0  0  0  0  0  0
   -6.7931   -0.5217    0.0000 O   0  0  0  0  0  0  0  0  0  0  0  0
   -5.8079   -2.9257    0.0000 C   0  0  0  0  0  0  0  0  0  0  0  0
   -7.1958   -3.4946    0.0000 C   0  0  0  0  0  0  0  0  0  0  0  0
   -7.3972   -4.9810    0.0000 C   0  0  0  0  0  0  0  0  0  0  0  0
   -8.7851   -5.5498    0.0000 C   0  0  0  0  0  0  0  0  0  0  0  0
   -8.9865   -7.0363    0.0000 N   0  0  0  0  0  0  0  0  0  0  0  0
  -10.3744   -7.6051    0.0000 C   0  0  0  0  0  0  0  0  0  0  0  0
  -11.5610   -6.6875    0.0000 N   0  0  0  0  0  0  0  0  0  0  0  0
  -10.5758   -9.0915    0.0000 N   0  0  0  0  0  0  0  0  0  0  0  0
   -4.6213   -3.8433    0.0000 N   0  0  0  0  0  0  0  0  0  0  0  0
   -4.8226   -5.3298    0.0000 C   0  0  0  0  0  0  0  0  0  0  0  0
   -6.2106   -5.8986    0.0000 O   0  0  0  0  0  0  0  0  0  0  0  0
   -3.6360   -6.2473    0.0000 C   0  0  0  0  0  0  0  0  0  0  0  0
   -3.8373   -7.7338    0.0000 C   0  0  0  0  0  0  0  0  0  0  0  0
   -2.6507   -8.6513    0.0000 C   0  0  0  0  0  0  0  0  0  0  0  0
   -2.8521  -10.1378    0.0000 C   0  0  0  0  0  0  0  0  0  0  0  0
   -1.6655  -11.0554    0.0000 N   0  0  0  0  0  0  0  0  0  0  0  0
   -1.8668  -12.5418    0.0000 C   0  0  0  0  0  0  0  0  0  0  0  0
   -3.2548  -13.1106    0.0000 N   0  0  0  0  0  0  0  0  0  0  0  0
   -0.6802  -13.4594    0.0000 N   0  0  0  0  0  0  0  0  0  0  0  0
   -2.2480   -5.6785    0.0000 N   0  0  0  0  0  0  0  0  0  0  0  0
   -1.0614   -6.5961    0.0000 C   0  0  0  0  0  0  0  0  0  0  0  0
    0.3265   -6.0272    0.0000 C   0  0  0  0  0  0  0  0  0  0  0  0
   -1.2628   -8.0825    0.0000 O   0  0  0  0  0  0  0  0  0  0  0  0
   -5.4796    0.9497    0.0000 C   0  0  0  0  0  0  0  0  0  0  0  0
   -6.8589    1.5393    0.0000 S   0  0  0  0  0  0  0  0  0  0  0  0
   -8.1107    2.3656    0.0000 S   0  0  0  0  0  0  0  0  0  0  0  0
   -9.1949    3.4022    0.0000 C   0  0  0  0  0  0  0  0  0  0  0  0
  -10.0766    4.6157    0.0000 C   0  0  0  0  0  0  0  0  0  0  0  0
  -11.3643    3.8464    0.0000 C   0  0  0  0  0  0  0  0  0  0  0  0
  -11.3418    2.3466    0.0000 O   0  0  0  0  0  0  0  0  0  0  0  0
  -12.6744    4.5769    0.0000 N   0  0  0  0  0  0  0  0  0  0  0  0
  -13.9621    3.8075    0.0000 C   0  0  0  0  0  0  0  0  0  0  0  0
  -15.2722    4.5380    0.0000 C   0  0  0  0  0  0  0  0  0  0  0  0
  -16.5599    3.7687    0.0000 C   0  0  0  0  0  0  0  0  0  0  0  0
  -17.8700    4.4991    0.0000 C   0  0  0  0  0  0  0  0  0  0  0  0
  -19.1576    3.7298    0.0000 N   0  0  0  0  0  0  0  0  0  0  0  0
  -20.4678    4.4603    0.0000 C   0  0  0  0  0  0  0  0  0  0  0  0
  -20.4902    5.9601    0.0000 N   0  0  0  0  0  0  0  0  0  0  0  0
  -21.7554    3.6909    0.0000 N   0  0  0  0  0  0  0  0  0  0  0  0
  -13.9396    2.3077    0.0000 C   0  0  0  0  0  0  0  0  0  0  0  0
  -12.6295    1.5772    0.0000 O   0  0  0  0  0  0  0  0  0  0  0  0
  -15.2273    1.5383    0.0000 N   0  0  0  0  0  0  0  0  0  0  0  0
  -15.2049    0.0385    0.0000 C   0  0  0  0  0  0  0  0  0  0  0  0
  -16.4925   -0.7308    0.0000 C   0  0  0  0  0  0  0  0  0  0  0  0
  -16.4701   -2.2307    0.0000 C   0  0  0  0  0  0  0  0  0  0  0  0
  -17.7578   -3.0000    0.0000 C   0  0  0  0  0  0  0  0  0  0  0  0
  -17.7353   -4.4999    0.0000 N   0  0  0  0  0  0  0  0  0  0  0  0
  -19.0230   -5.2692    0.0000 C   0  0  0  0  0  0  0  0  0  0  0  0
  -20.3331   -4.5387    0.0000 N   0  0  0  0  0  0  0  0  0  0  0  0
  -19.0006   -6.7690    0.0000 N   0  0  0  0  0  0  0  0  0  0  0  0
  -13.8948   -0.6920    0.0000 C   0  0  0  0  0  0  0  0  0  0  0  0
  -13.8723   -2.1918    0.0000 N   0  0  0  0  0  0  0  0  0  0  0  0
  -12.6071    0.0774    0.0000 O   0  0  0  0  0  0  0  0  0  0  0  0
  -10.7274    5.9672    0.0000 N   0  0  0  0  0  0  0  0  0  0  0  0
  -11.1265    7.4131    0.0000 C   0  0  0  0  0  0  0  0  0  0  0  0
  -12.6024    7.1453    0.0000 O   0  0  0  0  0  0  0  0  0  0  0  0
  -11.2610    8.9071    0.0000 C   0  0  0  0  0  0  0  0  0  0  0  0
  -12.7610    8.9071    0.0000 C   0  0  0  0  0  0  0  0  0  0  0  0
  -13.5110   10.2061    0.0000 C   0  0  0  0  0  0  0  0  0  0  0  0
  -13.5110    7.6081    0.0000 C   0  0  0  0  0  0  0  0  0  0  0  0
  -11.1265   10.4011    0.0000 N   0  0  0  0  0  0  0  0  0  0  0  0
  -10.7274   11.8470    0.0000 C   0  0  0  0  0  0  0  0  0  0  0  0
  -12.1318   12.3741    0.0000 O   0  0  0  0  0  0  0  0  0  0  0  0
  -10.0766   13.1984    0.0000 C   0  0  0  0  0  0  0  0  0  0  0  0
  -11.5032   13.6620    0.0000 C   0  0  0  0  0  0  0  0  0  0  0  0
  -11.5032   15.1620    0.0000 C   0  0  0  0  0  0  0  0  0  0  0  0
  -10.0766   15.6255    0.0000 C   0  0  0  0  0  0  0  0  0  0  0  0
   -9.1949   14.4120    0.0000 N   0  0  0  0  0  0  0  0  0  0  0  0
   -8.1107   15.4486    0.0000 C   0  0  0  0  0  0  0  0  0  0  0  0
   -9.0460   16.6213    0.0000 O   0  0  0  0  0  0  0  0  0  0  0  0
   -6.8589   16.2749    0.0000 C   0  0  0  0  0  0  0  0  0  0  0  0
   -7.5697   17.5958    0.0000 C   0  0  0  0  0  0  0  0  0  0  0  0
   -6.7812   18.8718    0.0000 C   0  0  0  0  0  0  0  0  0  0  0  0
   -5.2818   18.8270    0.0000 O   0  0  0  0  0  0  0  0  0  0  0  0
   -7.4920   20.1927    0.0000 O   0  0  0  0  0  0  0  0  0  0  0  0
   -5.4796   16.8645    0.0000 N   0  0  0  0  0  0  0  0  0  0  0  0
   -4.0172   17.1982    0.0000 C   0  0  0  0  0  0  0  0  0  0  0  0
   -4.2186   18.6847    0.0000 O   0  0  0  0  0  0  0  0  0  0  0  0
   -2.5187   17.2655    0.0000 C   0  0  0  0  0  0  0  0  0  0  0  0
   -2.4514   18.7640    0.0000 C   0  0  0  0  0  0  0  0  0  0  0  0
   -1.1200   19.4550    0.0000 C   0  0  0  0  0  0  0  0  0  0  0  0
    0.1440   18.6475    0.0000 C   0  0  0  0  0  0  0  0  0  0  0  0
    1.4754   19.3384    0.0000 C   0  0  0  0  0  0  0  0  0  0  0  0
    1.5427   20.8369    0.0000 C   0  0  0  0  0  0  0  0  0  0  0  0
    2.8741   21.5279    0.0000 O   0  0  0  0  0  0  0  0  0  0  0  0
    0.2786   21.6444    0.0000 C   0  0  0  0  0  0  0  0  0  0  0  0
   -1.0527   20.9535    0.0000 C   0  0  0  0  0  0  0  0  0  0  0  0
   -1.0323   17.0642    0.0000 N   0  0  0  0  0  0  0  0  0  0  0  0
    0.3943   16.6007    0.0000 C   0  0  0  0  0  0  0  0  0  0  0  0
    0.9838   17.9799    0.0000 O   0  0  0  0  0  0  0  0  0  0  0  0
    1.7152   15.8899    0.0000 C   0  0  0  0  0  0  0  0  0  0  0  0
    2.5415   17.1417    0.0000 C   0  0  0  0  0  0  0  0  0  0  0  0
    4.0389   17.0520    0.0000 C   0  0  0  0  0  0  0  0  0  0  0  0
    4.9915   18.2106    0.0000 C   0  0  0  0  0  0  0  0  0  0  0  0
    6.3878   17.6626    0.0000 S   0  0  0  0  0  0  0  0  0  0  0  0
    6.2981   16.1653    0.0000 C   0  0  0  0  0  0  0  0  0  0  0  0
    4.8464   15.7879    0.0000 N   0  0  0  0  0  0  0  0  0  0  0  0
    2.8879   14.9546    0.0000 N   0  0  0  0  0  0  0  0  0  0  0  0
    3.8748   13.8250    0.0000 C   0  0  0  0  0  0  0  0  0  0  0  0
    5.0884   14.7067    0.0000 O   0  0  0  0  0  0  0  0  0  0  0  0
  1  2  1  0
  2  3  1  0
  3  4  1  6
  3  5  1  0
  5  6  1  6
  6  7  1  0
  7  8  2  0
  7  9  1  0
  9 10  1  6
 10 11  1  0
 11 12  2  0
 12 13  1  0
 13 14  2  0
 14 15  1  0
 14 16  1  0
 16 17  2  0
  9 18  1  0
 18 19  1  0
 19 20  2  0
 19 21  1  0
 21 22  1  6
 22 23  1  0
 23 24  1  0
 23 25  1  0
 21 26  1  0
 26 27  1  0
 27 28  2  0
 27 29  1  0
 29 30  1  6
 30 31  1  0
 31 32  1  0
 32 33  1  0
 33 34  1  0
 34 35  2  0
 34 36  1  0
 36 37  1  1
 37 38  1  0
 38 39  2  0
 38 40  1  0
 40 41  1  1
 41 42  1  0
 42 43  1  0
 43 44  1  0
 44 45  1  0
 45 46  2  0
 45 47  1  0
 40 48  1  0
 48 49  1  0
 49 50  2  0
 49 51  1  0
 51 52  1  1
 52 53  1  0
 53 54  1  0
 54 55  1  0
 55 56  1  0
 56 57  2  0
 56 58  1  0
 51 59  1  0
 59 60  1  0
 60 61  1  0
 60 62  2  0
 36 63  1  0
 63 64  1  0
 64 65  1  0
 65 66  1  0
 66 67  1  0
 67 68  1  1
 68 69  2  0
 68 70  1  0
 70 71  1  0
 71 72  1  6
 72 73  1  0
 73 74  1  0
 74 75  1  0
 75 76  1  0
 76 77  2  0
 76 78  1  0
 71 79  1  0
 79 80  2  0
 79 81  1  0
 81 82  1  0
 82 83  1  6
 83 84  1  0
 84 85  1  0
 85 86  1  0
 86 87  1  0
 87 88  2  0
 87 89  1  0
 82 90  1  0
 90 91  1  0
 90 92  2  0
 67 93  1  0
 93 94  1  0
 94 95  2  0
 94 96  1  0
 96 97  1  6
 97 98  1  0
 97 99  1  0
 96100  1  0
100101  1  0
101102  2  0
101103  1  0
103104  1  6
104105  1  0
105106  1  0
106107  1  0
107108  1  0
108109  2  0
108110  1  0
110111  1  6
111112  1  0
112113  2  0
112114  1  0
110115  1  0
115116  1  0
116117  2  0
116118  1  0
118119  1  6
119120  1  0
120121  2  0
121122  1  0
122123  2  0
123124  1  0
123125  1  0
125126  2  0
118127  1  0
127128  1  0
128129  2  0
128130  1  0
130131  1  6
131132  1  0
132133  2  0
133134  1  0
134135  1  0
135136  2  0
130137  1  0
137138  1  0
138139  2  0
138  5  1  0
 17 11  1  0
 33 29  1  0
107103  1  0
126120  1  0
136132  1  0
M  END
>  <molecule_chembl_id>  (108) 
CHEMBL5181204

>  <canonical_smiles>  (108) 
CC[C@H](C)[C@@H]1NC(=O)[C@H](Cc2ccc(O)cc2)NC(=O)[C@H](CC(C)C)NC(=O)[C@@H]2CCCN2C(=O)[C@@H](NC(=O)[C@H](CCCNC(=N)N)NC(=O)[C@H](CCCNC(=N)N)NC(C)=O)CSSC[C@@H](C(=O)N[C@@H](CCCNC(=N)N)C(=O)N[C@@H](CCCNC(=N)N)C(N)=O)NC(=O)[C@H](C(C)C)NC(=O)[C@@H]2CCCN2C(=O)[C@H](CC(=O)O)NC(=O)[C@H](Cc2ccc(O)cc2)NC(=O)[C@H](Cc2cscn2)NC1=O

>  <pchembl_value_mean>  (108) 
5.64

>  <inchi>  (108) 
InChI=1S/C87H135N29O20S3/c1-8-46(6)68-81(134)109-60(38-50-40-137-43-101-50)75(128)106-58(36-48-21-25-51(118)26-22-48)74(127)110-61(39-66(120)121)82(135)115-33-14-20-65(115)79(132)113-67(45(4)5)80(133)111-62(77(130)105-55(17-11-31-99-86(93)94)71(124)103-53(69(88)122)15-9-29-97-84(89)90)41-138-139-42-63(112-72(125)56(18-12-32-100-87(95)96)104-70(123)54(102-47(7)117)16-10-30-98-85(91)92)83(136)116-34-13-19-64(116)78(131)108-57(35-44(2)3)73(126)107-59(76(129)114-68)37-49-23-27-52(119)28-24-49/h21-28,40,43-46,53-65,67-68,118-119H,8-20,29-39,41-42H2,1-7H3,(H2,88,122)(H,102,117)(H,103,124)(H,104,123)(H,105,130)(H,106,128)(H,107,126)(H,108,131)(H,109,134)(H,110,127)(H,111,133)(H,112,125)(H,113,132)(H,114,129)(H,120,121)(H4,89,90,97)(H4,91,92,98)(H4,93,94,99)(H4,95,96,100)/t46-,53-,54-,55-,56-,57-,58-,59-,60-,61-,62-,63-,64-,65-,67-,68-/m0/s1

$$$$

     RDKit          2D

162171  0  0  0  0  0  0  0  0999 V2000
   11.5397   12.6308    0.0000 N   0  0  0  0  0  0  0  0  0  0  0  0
   12.6392   11.6105    0.0000 C   0  0  0  0  0  0  0  0  0  0  0  0
   14.0726   12.0527    0.0000 N   0  0  0  0  0  0  0  0  0  0  0  0
   12.3055   10.1481    0.0000 N   0  0  0  0  0  0  0  0  0  0  0  0
   10.8721    9.7060    0.0000 C   0  0  0  0  0  0  0  0  0  0  0  0
   10.5383    8.2436    0.0000 C   0  0  0  0  0  0  0  0  0  0  0  0
    9.1050    7.8015    0.0000 C   0  0  0  0  0  0  0  0  0  0  0  0
    8.7712    6.3391    0.0000 C   0  0  0  0  0  0  0  0  0  0  0  0
   10.1870    5.8437    0.0000 N   0  0  0  0  0  0  0  0  0  0  0  0
   11.4571    5.0456    0.0000 C   0  0  0  0  0  0  0  0  0  0  0  0
   12.3923    6.2184    0.0000 O   0  0  0  0  0  0  0  0  0  0  0  0
   12.5177    3.9849    0.0000 C   0  0  0  0  0  0  0  0  0  0  0  0
   13.6905    4.9202    0.0000 C   0  0  0  0  0  0  0  0  0  0  0  0
   15.0868    4.3722    0.0000 C   0  0  0  0  0  0  0  0  0  0  0  0
   16.2596    5.3074    0.0000 C   0  0  0  0  0  0  0  0  0  0  0  0
   17.6559    4.7594    0.0000 N   0  0  0  0  0  0  0  0  0  0  0  0
   18.8286    5.6946    0.0000 C   0  0  0  0  0  0  0  0  0  0  0  0
   18.6050    7.1779    0.0000 N   0  0  0  0  0  0  0  0  0  0  0  0
   20.2249    5.1466    0.0000 N   0  0  0  0  0  0  0  0  0  0  0  0
   13.3158    2.7149    0.0000 N   0  0  0  0  0  0  0  0  0  0  0  0
   13.8112    1.2990    0.0000 C   0  0  0  0  0  0  0  0  0  0  0  0
   15.2736    1.6328    0.0000 O   0  0  0  0  0  0  0  0  0  0  0  0
   13.9792   -0.1915    0.0000 C   0  0  0  0  0  0  0  0  0  0  0  0
   15.4792   -0.1915    0.0000 C   0  0  0  0  0  0  0  0  0  0  0  0
   16.2292   -1.4906    0.0000 C   0  0  0  0  0  0  0  0  0  0  0  0
   17.7292   -1.4906    0.0000 C   0  0  0  0  0  0  0  0  0  0  0  0
   18.4792   -2.7896    0.0000 N   0  0  0  0  0  0  0  0  0  0  0  0
   18.4792   -0.1915    0.0000 O   0  0  0  0  0  0  0  0  0  0  0  0
   13.8112   -1.6821    0.0000 N   0  0  0  0  0  0  0  0  0  0  0  0
   13.3158   -3.0979    0.0000 C   0  0  0  0  0  0  0  0  0  0  0  0
   14.6672   -3.7487    0.0000 O   0  0  0  0  0  0  0  0  0  0  0  0
   12.5177   -4.3680    0.0000 C   0  0  0  0  0  0  0  0  0  0  0  0
   13.6905   -5.3032    0.0000 C   0  0  0  0  0  0  0  0  0  0  0  0
   13.4669   -6.7865    0.0000 C   0  0  0  0  0  0  0  0  0  0  0  0
   12.0706   -7.3345    0.0000 C   0  0  0  0  0  0  0  0  0  0  0  0
   11.8471   -8.8177    0.0000 C   0  0  0  0  0  0  0  0  0  0  0  0
   13.0198   -9.7530    0.0000 C   0  0  0  0  0  0  0  0  0  0  0  0
   14.4161   -9.2050    0.0000 C   0  0  0  0  0  0  0  0  0  0  0  0
   14.6397   -7.7217    0.0000 C   0  0  0  0  0  0  0  0  0  0  0  0
   11.4571   -5.4287    0.0000 N   0  0  0  0  0  0  0  0  0  0  0  0
   10.1870   -6.2267    0.0000 C   0  0  0  0  0  0  0  0  0  0  0  0
   10.8378   -7.5782    0.0000 O   0  0  0  0  0  0  0  0  0  0  0  0
    8.7712   -6.7221    0.0000 C   0  0  0  0  0  0  0  0  0  0  0  0
    7.2806   -6.8901    0.0000 C   0  0  0  0  0  0  0  0  0  0  0  0
    5.7900   -6.7221    0.0000 C   0  0  0  0  0  0  0  0  0  0  0  0
    4.3742   -6.2267    0.0000 C   0  0  0  0  0  0  0  0  0  0  0  0
    3.1041   -5.4287    0.0000 C   0  0  0  0  0  0  0  0  0  0  0  0
    2.0435   -4.3680    0.0000 N   0  0  0  0  0  0  0  0  0  0  0  0
    1.2454   -3.0979    0.0000 C   0  0  0  0  0  0  0  0  0  0  0  0
   -0.1060   -3.7487    0.0000 O   0  0  0  0  0  0  0  0  0  0  0  0
    0.7500   -1.2990    0.0000 C   0  0  0  0  0  0  0  0  0  0  0  0
    1.5000    0.0000    0.0000 C   0  0  0  0  0  0  0  0  0  0  0  0
    0.7500    1.2990    0.0000 C   0  0  0  0  0  0  0  0  0  0  0  0
   -0.7500    1.2990    0.0000 C   0  0  0  0  0  0  0  0  0  0  0  0
   -1.5000    0.0000    0.0000 C   0  0  0  0  0  0  0  0  0  0  0  0
   -0.7500   -1.2990    0.0000 C   0  0  0  0  0  0  0  0  0  0  0  0
   -2.3002   -1.3623    0.0000 C   0  0  0  0  0  0  0  0  0  0  0  0
   -3.7181    0.3198    0.0000 O   0  0  0  0  0  0  0  0  0  0  0  0
   -3.2158   -2.3372    0.0000 N   0  0  0  0  0  0  0  0  0  0  0  0
   -3.8819   -3.4970    0.0000 C   0  0  0  0  0  0  0  0  0  0  0  0
   -5.9040   -2.6302    0.0000 C   0  0  0  0  0  0  0  0  0  0  0  0
   -6.0815   -1.1408    0.0000 C   0  0  0  0  0  0  0  0  0  0  0  0
   -4.8803   -0.2423    0.0000 C   0  0  0  0  0  0  0  0  0  0  0  0
   -5.0578    1.2471    0.0000 C   0  0  0  0  0  0  0  0  0  0  0  0
   -6.4365    1.8381    0.0000 C   0  0  0  0  0  0  0  0  0  0  0  0
   -6.6140    3.3276    0.0000 C   0  0  0  0  0  0  0  0  0  0  0  0
   -7.9927    3.9186    0.0000 C   0  0  0  0  0  0  0  0  0  0  0  0
   -9.1939    3.0201    0.0000 C   0  0  0  0  0  0  0  0  0  0  0  0
   -9.0163    1.5307    0.0000 C   0  0  0  0  0  0  0  0  0  0  0  0
   -7.6377    0.9397    0.0000 C   0  0  0  0  0  0  0  0  0  0  0  0
   -7.4602   -0.5498    0.0000 C   0  0  0  0  0  0  0  0  0  0  0  0
   -4.2626   -4.7792    0.0000 C   0  0  0  0  0  0  0  0  0  0  0  0
   -6.4300   -4.4021    0.0000 O   0  0  0  0  0  0  0  0  0  0  0  0
   -4.3373   -6.1146    0.0000 N   0  0  0  0  0  0  0  0  0  0  0  0
   -4.1021   -7.4312    0.0000 C   0  0  0  0  0  0  0  0  0  0  0  0
   -6.2082   -8.0669    0.0000 C   0  0  0  0  0  0  0  0  0  0  0  0
   -7.3016   -7.0400    0.0000 O   0  0  0  0  0  0  0  0  0  0  0  0
   -3.5696   -8.6581    0.0000 C   0  0  0  0  0  0  0  0  0  0  0  0
   -5.4723   -9.7624    0.0000 O   0  0  0  0  0  0  0  0  0  0  0  0
   -2.7685   -9.7291    0.0000 N   0  0  0  0  0  0  0  0  0  0  0  0
   -1.7420  -10.5864    0.0000 C   0  0  0  0  0  0  0  0  0  0  0  0
   -2.9467  -12.4273    0.0000 C   0  0  0  0  0  0  0  0  0  0  0  0
   -4.4444  -12.3434    0.0000 C   0  0  0  0  0  0  0  0  0  0  0  0
   -5.2658  -13.5985    0.0000 N   0  0  0  0  0  0  0  0  0  0  0  0
   -5.1206  -11.0045    0.0000 O   0  0  0  0  0  0  0  0  0  0  0  0
   -0.5454  -11.1840    0.0000 C   0  0  0  0  0  0  0  0  0  0  0  0
   -1.2931  -13.2530    0.0000 O   0  0  0  0  0  0  0  0  0  0  0  0
    0.7567  -11.4895    0.0000 N   0  0  0  0  0  0  0  0  0  0  0  0
    2.0942  -11.4864    0.0000 C   0  0  0  0  0  0  0  0  0  0  0  0
    2.3546  -13.6710    0.0000 C   0  0  0  0  0  0  0  0  0  0  0  0
    1.1534  -14.5694    0.0000 C   0  0  0  0  0  0  0  0  0  0  0  0
   -0.2253  -13.9785    0.0000 C   0  0  0  0  0  0  0  0  0  0  0  0
   -1.4264  -14.8769    0.0000 C   0  0  0  0  0  0  0  0  0  0  0  0
   -1.2489  -16.3664    0.0000 C   0  0  0  0  0  0  0  0  0  0  0  0
   -2.4501  -17.2648    0.0000 C   0  0  0  0  0  0  0  0  0  0  0  0
   -2.2725  -18.7543    0.0000 C   0  0  0  0  0  0  0  0  0  0  0  0
   -0.8939  -19.3453    0.0000 C   0  0  0  0  0  0  0  0  0  0  0  0
    0.3073  -18.4468    0.0000 C   0  0  0  0  0  0  0  0  0  0  0  0
    0.1298  -16.9574    0.0000 C   0  0  0  0  0  0  0  0  0  0  0  0
    1.3309  -16.0589    0.0000 C   0  0  0  0  0  0  0  0  0  0  0  0
    3.3949  -11.1751    0.0000 C   0  0  0  0  0  0  0  0  0  0  0  0
    4.1520  -13.2407    0.0000 O   0  0  0  0  0  0  0  0  0  0  0  0
    4.5887  -10.5721    0.0000 N   0  0  0  0  0  0  0  0  0  0  0  0
    5.6114   -9.7101    0.0000 C   0  0  0  0  0  0  0  0  0  0  0  0
    7.2150  -11.2162    0.0000 C   0  0  0  0  0  0  0  0  0  0  0  0
    6.8724  -12.6765    0.0000 C   0  0  0  0  0  0  0  0  0  0  0  0
    7.9658  -13.7034    0.0000 C   0  0  0  0  0  0  0  0  0  0  0  0
    9.4018  -13.2699    0.0000 C   0  0  0  0  0  0  0  0  0  0  0  0
    9.7444  -11.8096    0.0000 C   0  0  0  0  0  0  0  0  0  0  0  0
    8.6510  -10.7827    0.0000 C   0  0  0  0  0  0  0  0  0  0  0  0
    6.4076   -8.6354    0.0000 C   0  0  0  0  0  0  0  0  0  0  0  0
    8.3154   -9.7311    0.0000 O   0  0  0  0  0  0  0  0  0  0  0  0
    8.1358   -8.0625    0.0000 N   0  0  0  0  0  0  0  0  0  0  0  0
    1.2454    2.7149    0.0000 C   0  0  0  0  0  0  0  0  0  0  0  0
    0.0946    3.1047    0.0000 O   0  0  0  0  0  0  0  0  0  0  0  0
    2.0435    3.9849    0.0000 N   0  0  0  0  0  0  0  0  0  0  0  0
    3.1041    5.0456    0.0000 C   0  0  0  0  0  0  0  0  0  0  0  0
    4.3742    5.8437    0.0000 C   0  0  0  0  0  0  0  0  0  0  0  0
    3.7234    7.1951    0.0000 C   0  0  0  0  0  0  0  0  0  0  0  0
    2.2276    7.3072    0.0000 O   0  0  0  0  0  0  0  0  0  0  0  0
    4.5684    8.4345    0.0000 N   0  0  0  0  0  0  0  0  0  0  0  0
    3.9175    9.7859    0.0000 C   0  0  0  0  0  0  0  0  0  0  0  0
    4.7625   11.0253    0.0000 C   0  0  0  0  0  0  0  0  0  0  0  0
    4.1117   12.3767    0.0000 C   0  0  0  0  0  0  0  0  0  0  0  0
    4.9567   13.6161    0.0000 C   0  0  0  0  0  0  0  0  0  0  0  0
    4.3059   14.9675    0.0000 N   0  0  0  0  0  0  0  0  0  0  0  0
    2.4217    9.8980    0.0000 C   0  0  0  0  0  0  0  0  0  0  0  0
    1.5768    8.6587    0.0000 O   0  0  0  0  0  0  0  0  0  0  0  0
    1.7709   11.2495    0.0000 N   0  0  0  0  0  0  0  0  0  0  0  0
    0.2751   11.3616    0.0000 C   0  0  0  0  0  0  0  0  0  0  0  0
   -0.3757   12.7130    0.0000 C   0  0  0  0  0  0  0  0  0  0  0  0
   -1.8715   12.8251    0.0000 C   0  0  0  0  0  0  0  0  0  0  0  0
   -2.5224   14.1766    0.0000 C   0  0  0  0  0  0  0  0  0  0  0  0
   -4.0182   14.2887    0.0000 N   0  0  0  0  0  0  0  0  0  0  0  0
   -4.6690   15.6401    0.0000 C   0  0  0  0  0  0  0  0  0  0  0  0
   -3.8240   16.8795    0.0000 N   0  0  0  0  0  0  0  0  0  0  0  0
   -6.1648   15.7522    0.0000 N   0  0  0  0  0  0  0  0  0  0  0  0
   -0.5699   10.1222    0.0000 C   0  0  0  0  0  0  0  0  0  0  0  0
    0.0810    8.7708    0.0000 O   0  0  0  0  0  0  0  0  0  0  0  0
   -2.0657   10.2343    0.0000 N   0  0  0  0  0  0  0  0  0  0  0  0
   -2.9107    8.9949    0.0000 C   0  0  0  0  0  0  0  0  0  0  0  0
   -4.4065    9.1070    0.0000 C   0  0  0  0  0  0  0  0  0  0  0  0
   -5.2514    7.8677    0.0000 C   0  0  0  0  0  0  0  0  0  0  0  0
   -6.7473    7.9798    0.0000 C   0  0  0  0  0  0  0  0  0  0  0  0
   -7.5922    6.7404    0.0000 C   0  0  0  0  0  0  0  0  0  0  0  0
   -6.9414    5.3890    0.0000 C   0  0  0  0  0  0  0  0  0  0  0  0
   -5.4456    5.2769    0.0000 C   0  0  0  0  0  0  0  0  0  0  0  0
   -4.6006    6.5162    0.0000 C   0  0  0  0  0  0  0  0  0  0  0  0
   -2.2598    7.6435    0.0000 C   0  0  0  0  0  0  0  0  0  0  0  0
   -0.7640    7.5314    0.0000 O   0  0  0  0  0  0  0  0  0  0  0  0
   -3.1048    6.4041    0.0000 N   0  0  0  0  0  0  0  0  0  0  0  0
   -2.4540    5.0527    0.0000 C   0  0  0  0  0  0  0  0  0  0  0  0
   -3.2990    3.8133    0.0000 C   0  0  0  0  0  0  0  0  0  0  0  0
   -2.6481    2.4619    0.0000 C   0  0  0  0  0  0  0  0  0  0  0  0
   -3.4931    1.2225    0.0000 N   0  0  0  0  0  0  0  0  0  0  0  0
   -1.1523    2.3498    0.0000 O   0  0  0  0  0  0  0  0  0  0  0  0
   -0.9582    4.9406    0.0000 C   0  0  0  0  0  0  0  0  0  0  0  0
   -0.1132    6.1799    0.0000 N   0  0  0  0  0  0  0  0  0  0  0  0
   -0.5684    3.7898    0.0000 O   0  0  0  0  0  0  0  0  0  0  0  0
    5.7900    6.3391    0.0000 N   0  0  0  0  0  0  0  0  0  0  0  0
    7.2806    6.5070    0.0000 C   0  0  0  0  0  0  0  0  0  0  0  0
    7.2806    8.0070    0.0000 O   0  0  0  0  0  0  0  0  0  0  0  0
  1  2  2  0
  2  3  1  0
  2  4  1  0
  4  5  1  0
  5  6  1  0
  6  7  1  0
  8  7  1  6
  8  9  1  0
  9 10  1  0
 10 11  2  0
 10 12  1  0
 12 13  1  1
 13 14  1  0
 14 15  1  0
 15 16  1  0
 16 17  1  0
 17 18  2  0
 17 19  1  0
 12 20  1  0
 20 21  1  0
 21 22  2  0
 21 23  1  0
 23 24  1  1
 24 25  1  0
 25 26  1  0
 26 27  1  0
 26 28  2  0
 23 29  1  0
 29 30  1  0
 30 31  2  0
 30 32  1  0
 32 33  1  1
 33 34  1  0
 34 35  2  0
 35 36  1  0
 36 37  2  0
 37 38  1  0
 38 39  2  0
 32 40  1  0
 40 41  1  0
 41 42  2  0
 41 43  1  0
 43 44  1  0
 44 45  1  0
 45 46  1  0
 46 47  1  0
 47 48  1  0
 48 49  1  0
 49 50  2  0
 49 51  1  0
 51 52  1  0
 52 53  2  0
 53 54  1  0
 54 55  2  0
 55 56  1  0
 55 57  1  0
 57 58  2  0
 57 59  1  0
 59 60  1  0
 60 61  1  1
 61 62  1  0
 62 63  2  0
 63 64  1  0
 64 65  2  0
 65 66  1  0
 66 67  2  0
 67 68  1  0
 68 69  2  0
 69 70  1  0
 70 71  2  0
 60 72  1  0
 72 73  2  0
 72 74  1  0
 74 75  1  0
 75 76  1  6
 76 77  1  0
 75 78  1  0
 78 79  2  0
 78 80  1  0
 80 81  1  0
 81 82  1  6
 82 83  1  0
 83 84  1  0
 83 85  2  0
 81 86  1  0
 86 87  2  0
 86 88  1  0
 88 89  1  0
 89 90  1  1
 90 91  1  0
 91 92  2  0
 92 93  1  0
 93 94  2  0
 94 95  1  0
 95 96  2  0
 96 97  1  0
 97 98  2  0
 98 99  1  0
 99100  2  0
 89101  1  0
101102  2  0
101103  1  0
103104  1  0
104105  1  6
105106  2  0
106107  1  0
107108  2  0
108109  1  0
109110  2  0
104111  1  0
111112  2  0
111113  1  0
 53114  1  0
114115  2  0
114116  1  0
116117  1  0
117118  1  0
118119  1  1
119120  2  0
119121  1  0
121122  1  0
122123  1  6
123124  1  0
124125  1  0
125126  1  0
122127  1  0
127128  2  0
127129  1  0
129130  1  0
130131  1  1
131132  1  0
132133  1  0
133134  1  0
134135  1  0
135136  2  0
135137  1  0
130138  1  0
138139  2  0
138140  1  0
140141  1  0
141142  1  6
142143  1  0
143144  2  0
144145  1  0
145146  2  0
146147  1  0
147148  2  0
141149  1  0
149150  2  0
149151  1  0
151152  1  0
152153  1  1
153154  1  0
154155  1  0
154156  2  0
152157  1  0
157158  1  0
157159  2  0
118160  1  0
160161  1  0
161162  2  0
161  8  1  0
 39 34  1  0
 43113  1  1
148143  1  0
 56 51  2  0
 71 62  1  0
100 91  1  0
110105  1  0
 70 65  1  0
 99 94  1  0
M  END
>  <molecule_chembl_id>  (109) 
CHEMBL4869701

>  <canonical_smiles>  (109) 
N=C(N)NCCC[C@@H]1NC(=O)[C@@H](CCCNC(=N)N)NC(=O)[C@@H](CCC(N)=O)NC(=O)[C@@H](Cc2ccccc2)NC(=O)[C@@H]2CCCCNC(=O)c3cc(cc(c3)C(=O)N[C@H](Cc3ccc4ccccc4c3)C(=O)N[C@@H](CO)C(=O)N[C@@H](CC(N)=O)C(=O)N[C@H](Cc3ccc4ccccc4c3)C(=O)N[C@@H](c3ccccc3)C(=O)N2)C(=O)NC[C@@H](C(=O)N[C@@H](CCCN)C(=O)N[C@H](CCCNC(=N)N)C(=O)N[C@@H](Cc2ccccc2)C(=O)N[C@H](CC(N)=O)C(N)=O)NC1=O

>  <pchembl_value_mean>  (109) 
5.66

>  <inchi>  (109) 
InChI=1S/C109H139N31O22/c110-41-16-31-72(93(149)126-74(33-18-44-123-108(117)118)96(152)135-79(49-60-22-6-2-7-23-60)100(156)132-77(89(114)145)55-86(112)143)129-104(160)83-57-125-91(147)69-52-68-53-70(54-69)92(148)133-80(50-61-35-37-63-24-10-12-28-66(63)46-61)101(157)139-84(58-141)105(161)137-82(56-87(113)144)102(158)136-81(51-62-36-38-64-25-11-13-29-67(64)47-62)103(159)140-88(65-26-8-3-9-27-65)106(162)131-71(30-14-15-42-121-90(68)146)95(151)134-78(48-59-20-4-1-5-21-59)99(155)130-76(39-40-85(111)142)98(154)128-73(32-17-43-122-107(115)116)94(150)127-75(97(153)138-83)34-19-45-124-109(119)120/h1-13,20-29,35-38,46-47,52-54,71-84,88,141H,14-19,30-34,39-45,48-51,55-58,110H2,(H2,111,142)(H2,112,143)(H2,113,144)(H2,114,145)(H,121,146)(H,125,147)(H,126,149)(H,127,150)(H,128,154)(H,129,160)(H,130,155)(H,131,162)(H,132,156)(H,133,148)(H,134,151)(H,135,152)(H,136,158)(H,137,161)(H,138,153)(H,139,157)(H,140,159)(H4,115,116,122)(H4,117,118,123)(H4,119,120,124)/t71-,72-,73+,74+,75-,76+,77+,78+,79-,80+,81+,82-,83-,84-,88-/m0/s1

$$$$

     RDKit          2D

159168  0  0  0  0  0  0  0  0999 V2000
   10.7457  -10.5769    0.0000 C   0  0  0  0  0  0  0  0  0  0  0  0
    9.2499  -10.6890    0.0000 C   0  0  0  0  0  0  0  0  0  0  0  0
    8.5991  -12.0404    0.0000 N   0  0  0  0  0  0  0  0  0  0  0  0
    7.1033  -12.1525    0.0000 C   0  0  0  0  0  0  0  0  0  0  0  0
    6.2583  -10.9132    0.0000 O   0  0  0  0  0  0  0  0  0  0  0  0
    6.4525  -13.5040    0.0000 C   0  0  0  0  0  0  0  0  0  0  0  0
    7.2975  -14.7434    0.0000 C   0  0  0  0  0  0  0  0  0  0  0  0
    8.7933  -14.6313    0.0000 C   0  0  0  0  0  0  0  0  0  0  0  0
    9.6382  -15.8706    0.0000 C   0  0  0  0  0  0  0  0  0  0  0  0
   11.1341  -15.7585    0.0000 C   0  0  0  0  0  0  0  0  0  0  0  0
   11.7849  -14.4071    0.0000 C   0  0  0  0  0  0  0  0  0  0  0  0
   10.9399  -13.1677    0.0000 C   0  0  0  0  0  0  0  0  0  0  0  0
    9.4441  -13.2798    0.0000 C   0  0  0  0  0  0  0  0  0  0  0  0
    4.9567  -13.6161    0.0000 N   0  0  0  0  0  0  0  0  0  0  0  0
    4.1117  -12.3767    0.0000 C   0  0  0  0  0  0  0  0  0  0  0  0
    4.7625  -11.0253    0.0000 O   0  0  0  0  0  0  0  0  0  0  0  0
    2.6159  -12.4888    0.0000 C   0  0  0  0  0  0  0  0  0  0  0  0
    1.9651  -13.8403    0.0000 C   0  0  0  0  0  0  0  0  0  0  0  0
    2.8100  -15.0796    0.0000 C   0  0  0  0  0  0  0  0  0  0  0  0
    2.1592  -16.4311    0.0000 C   0  0  0  0  0  0  0  0  0  0  0  0
    3.0042  -17.6705    0.0000 N   0  0  0  0  0  0  0  0  0  0  0  0
    2.3534  -19.0219    0.0000 C   0  0  0  0  0  0  0  0  0  0  0  0
    0.8576  -19.1340    0.0000 N   0  0  0  0  0  0  0  0  0  0  0  0
    3.1984  -20.2613    0.0000 N   0  0  0  0  0  0  0  0  0  0  0  0
    1.7709  -11.2495    0.0000 N   0  0  0  0  0  0  0  0  0  0  0  0
    2.4217   -9.8980    0.0000 C   0  0  0  0  0  0  0  0  0  0  0  0
    3.9175   -9.7859    0.0000 O   0  0  0  0  0  0  0  0  0  0  0  0
    1.5768   -8.6587    0.0000 C   0  0  0  0  0  0  0  0  0  0  0  0
    0.0810   -8.7708    0.0000 C   0  0  0  0  0  0  0  0  0  0  0  0
   -0.5699  -10.1222    0.0000 C   0  0  0  0  0  0  0  0  0  0  0  0
   -2.0657  -10.2343    0.0000 C   0  0  0  0  0  0  0  0  0  0  0  0
   -2.7165  -11.5858    0.0000 N   0  0  0  0  0  0  0  0  0  0  0  0
    2.2276   -7.3072    0.0000 N   0  0  0  0  0  0  0  0  0  0  0  0
    3.7234   -7.1951    0.0000 C   0  0  0  0  0  0  0  0  0  0  0  0
    4.5684   -8.4345    0.0000 O   0  0  0  0  0  0  0  0  0  0  0  0
    4.3742   -5.8437    0.0000 C   0  0  0  0  0  0  0  0  0  0  0  0
    3.1041   -5.0456    0.0000 C   0  0  0  0  0  0  0  0  0  0  0  0
    2.0435   -3.9849    0.0000 N   0  0  0  0  0  0  0  0  0  0  0  0
    1.2454   -2.7149    0.0000 C   0  0  0  0  0  0  0  0  0  0  0  0
   -0.1060   -3.3657    0.0000 O   0  0  0  0  0  0  0  0  0  0  0  0
    0.7500   -1.2990    0.0000 C   0  0  0  0  0  0  0  0  0  0  0  0
    1.5000    0.0000    0.0000 C   0  0  0  0  0  0  0  0  0  0  0  0
    0.7500    1.2990    0.0000 C   0  0  0  0  0  0  0  0  0  0  0  0
   -0.7500    1.2990    0.0000 C   0  0  0  0  0  0  0  0  0  0  0  0
   -1.5000    0.0000    0.0000 C   0  0  0  0  0  0  0  0  0  0  0  0
   -0.7500   -1.2990    0.0000 C   0  0  0  0  0  0  0  0  0  0  0  0
   -2.7514    0.8271    0.0000 C   0  0  0  0  0  0  0  0  0  0  0  0
   -3.7181   -0.3198    0.0000 O   0  0  0  0  0  0  0  0  0  0  0  0
   -3.7782    1.9205    0.0000 N   0  0  0  0  0  0  0  0  0  0  0  0
   -4.5253    3.2212    0.0000 C   0  0  0  0  0  0  0  0  0  0  0  0
   -5.9040    2.6302    0.0000 C   0  0  0  0  0  0  0  0  0  0  0  0
   -6.0815    1.1408    0.0000 C   0  0  0  0  0  0  0  0  0  0  0  0
   -4.8803    0.2423    0.0000 C   0  0  0  0  0  0  0  0  0  0  0  0
   -5.0578   -1.2471    0.0000 C   0  0  0  0  0  0  0  0  0  0  0  0
   -6.4365   -1.8381    0.0000 C   0  0  0  0  0  0  0  0  0  0  0  0
   -6.6140   -3.3276    0.0000 C   0  0  0  0  0  0  0  0  0  0  0  0
   -7.9927   -3.9186    0.0000 C   0  0  0  0  0  0  0  0  0  0  0  0
   -9.1939   -3.0201    0.0000 C   0  0  0  0  0  0  0  0  0  0  0  0
   -9.0163   -1.5307    0.0000 C   0  0  0  0  0  0  0  0  0  0  0  0
   -7.6377   -0.9397    0.0000 C   0  0  0  0  0  0  0  0  0  0  0  0
   -7.4602    0.5498    0.0000 C   0  0  0  0  0  0  0  0  0  0  0  0
   -4.9522    4.6592    0.0000 C   0  0  0  0  0  0  0  0  0  0  0  0
   -6.4300    4.4021    0.0000 O   0  0  0  0  0  0  0  0  0  0  0  0
   -5.0361    6.1568    0.0000 N   0  0  0  0  0  0  0  0  0  0  0  0
   -4.7722    7.6335    0.0000 C   0  0  0  0  0  0  0  0  0  0  0  0
   -6.2082    8.0669    0.0000 C   0  0  0  0  0  0  0  0  0  0  0  0
   -6.5509    9.5273    0.0000 O   0  0  0  0  0  0  0  0  0  0  0  0
   -4.1750    9.0094    0.0000 C   0  0  0  0  0  0  0  0  0  0  0  0
   -5.4723    9.7624    0.0000 O   0  0  0  0  0  0  0  0  0  0  0  0
   -3.2765   10.2106    0.0000 N   0  0  0  0  0  0  0  0  0  0  0  0
   -2.1253   11.1722    0.0000 C   0  0  0  0  0  0  0  0  0  0  0  0
   -2.9467   12.4273    0.0000 C   0  0  0  0  0  0  0  0  0  0  0  0
   -4.4444   12.3434    0.0000 C   0  0  0  0  0  0  0  0  0  0  0  0
   -5.2658   13.5985    0.0000 N   0  0  0  0  0  0  0  0  0  0  0  0
   -5.1206   11.0045    0.0000 O   0  0  0  0  0  0  0  0  0  0  0  0
   -0.7833   11.8423    0.0000 C   0  0  0  0  0  0  0  0  0  0  0  0
   -1.2931   13.2530    0.0000 O   0  0  0  0  0  0  0  0  0  0  0  0
    0.6770   12.1849    0.0000 N   0  0  0  0  0  0  0  0  0  0  0  0
    2.1770   12.1815    0.0000 C   0  0  0  0  0  0  0  0  0  0  0  0
    2.3546   13.6710    0.0000 C   0  0  0  0  0  0  0  0  0  0  0  0
    1.1534   14.5694    0.0000 C   0  0  0  0  0  0  0  0  0  0  0  0
   -0.2253   13.9785    0.0000 C   0  0  0  0  0  0  0  0  0  0  0  0
   -1.4264   14.8769    0.0000 C   0  0  0  0  0  0  0  0  0  0  0  0
   -1.2489   16.3664    0.0000 C   0  0  0  0  0  0  0  0  0  0  0  0
   -2.4501   17.2648    0.0000 C   0  0  0  0  0  0  0  0  0  0  0  0
   -2.2725   18.7543    0.0000 C   0  0  0  0  0  0  0  0  0  0  0  0
   -0.8939   19.3453    0.0000 C   0  0  0  0  0  0  0  0  0  0  0  0
    0.3073   18.4468    0.0000 C   0  0  0  0  0  0  0  0  0  0  0  0
    0.1298   16.9574    0.0000 C   0  0  0  0  0  0  0  0  0  0  0  0
    1.3309   16.0589    0.0000 C   0  0  0  0  0  0  0  0  0  0  0  0
    3.6358   11.8323    0.0000 C   0  0  0  0  0  0  0  0  0  0  0  0
    4.1520   13.2407    0.0000 O   0  0  0  0  0  0  0  0  0  0  0  0
    4.9747   11.1561    0.0000 N   0  0  0  0  0  0  0  0  0  0  0  0
    6.1216   10.1893    0.0000 C   0  0  0  0  0  0  0  0  0  0  0  0
    7.2150   11.2162    0.0000 C   0  0  0  0  0  0  0  0  0  0  0  0
    8.6510   10.7827    0.0000 C   0  0  0  0  0  0  0  0  0  0  0  0
    9.7444   11.8096    0.0000 C   0  0  0  0  0  0  0  0  0  0  0  0
    9.4018   13.2699    0.0000 C   0  0  0  0  0  0  0  0  0  0  0  0
    7.9658   13.7034    0.0000 C   0  0  0  0  0  0  0  0  0  0  0  0
    6.8724   12.6765    0.0000 C   0  0  0  0  0  0  0  0  0  0  0  0
    7.0146    8.9841    0.0000 C   0  0  0  0  0  0  0  0  0  0  0  0
    8.3154    9.7311    0.0000 O   0  0  0  0  0  0  0  0  0  0  0  0
    7.6056    7.6054    0.0000 N   0  0  0  0  0  0  0  0  0  0  0  0
    8.7712    6.7221    0.0000 C   0  0  0  0  0  0  0  0  0  0  0  0
    7.2806    6.1901    0.0000 C   0  0  0  0  0  0  0  0  0  0  0  0
    5.9458    6.0397    0.0000 C   0  0  0  0  0  0  0  0  0  0  0  0
    4.6779    5.5960    0.0000 C   0  0  0  0  0  0  0  0  0  0  0  0
    3.5406    4.8814    0.0000 C   0  0  0  0  0  0  0  0  0  0  0  0
    2.5907    3.9316    0.0000 N   0  0  0  0  0  0  0  0  0  0  0  0
    1.5931    2.4904    0.0000 C   0  0  0  0  0  0  0  0  0  0  0  0
   -0.1060    3.7487    0.0000 O   0  0  0  0  0  0  0  0  0  0  0  0
   10.1870    6.2267    0.0000 C   0  0  0  0  0  0  0  0  0  0  0  0
   10.8378    7.5782    0.0000 O   0  0  0  0  0  0  0  0  0  0  0  0
   11.4571    5.4287    0.0000 N   0  0  0  0  0  0  0  0  0  0  0  0
   12.5177    4.3680    0.0000 C   0  0  0  0  0  0  0  0  0  0  0  0
   13.6905    5.3032    0.0000 C   0  0  0  0  0  0  0  0  0  0  0  0
   15.0868    4.7552    0.0000 C   0  0  0  0  0  0  0  0  0  0  0  0
   15.3104    3.2720    0.0000 C   0  0  0  0  0  0  0  0  0  0  0  0
   16.7067    2.7240    0.0000 C   0  0  0  0  0  0  0  0  0  0  0  0
   17.8794    3.6592    0.0000 C   0  0  0  0  0  0  0  0  0  0  0  0
   17.6559    5.1425    0.0000 C   0  0  0  0  0  0  0  0  0  0  0  0
   16.2596    5.6905    0.0000 C   0  0  0  0  0  0  0  0  0  0  0  0
   13.3158    3.0979    0.0000 C   0  0  0  0  0  0  0  0  0  0  0  0
   14.6672    3.7487    0.0000 O   0  0  0  0  0  0  0  0  0  0  0  0
   13.8112    1.6821    0.0000 N   0  0  0  0  0  0  0  0  0  0  0  0
   13.9792    0.1915    0.0000 C   0  0  0  0  0  0  0  0  0  0  0  0
   15.4792    0.1915    0.0000 C   0  0  0  0  0  0  0  0  0  0  0  0
   16.2292   -1.1075    0.0000 C   0  0  0  0  0  0  0  0  0  0  0  0
   17.7292   -1.1075    0.0000 C   0  0  0  0  0  0  0  0  0  0  0  0
   18.4792   -2.4065    0.0000 N   0  0  0  0  0  0  0  0  0  0  0  0
   18.4792    0.1915    0.0000 O   0  0  0  0  0  0  0  0  0  0  0  0
   13.8112   -1.2990    0.0000 C   0  0  0  0  0  0  0  0  0  0  0  0
   15.2736   -1.6328    0.0000 O   0  0  0  0  0  0  0  0  0  0  0  0
   13.3158   -2.7149    0.0000 N   0  0  0  0  0  0  0  0  0  0  0  0
   12.5177   -3.9849    0.0000 C   0  0  0  0  0  0  0  0  0  0  0  0
   13.6905   -4.9202    0.0000 C   0  0  0  0  0  0  0  0  0  0  0  0
   13.4669   -6.4034    0.0000 C   0  0  0  0  0  0  0  0  0  0  0  0
   14.6397   -7.3387    0.0000 C   0  0  0  0  0  0  0  0  0  0  0  0
   14.4161   -8.8219    0.0000 N   0  0  0  0  0  0  0  0  0  0  0  0
   15.5889   -9.7571    0.0000 C   0  0  0  0  0  0  0  0  0  0  0  0
   16.9852   -9.2091    0.0000 N   0  0  0  0  0  0  0  0  0  0  0  0
   15.3653  -11.2404    0.0000 N   0  0  0  0  0  0  0  0  0  0  0  0
   11.4571   -5.0456    0.0000 C   0  0  0  0  0  0  0  0  0  0  0  0
   12.3923   -6.2184    0.0000 O   0  0  0  0  0  0  0  0  0  0  0  0
   10.1870   -5.8437    0.0000 N   0  0  0  0  0  0  0  0  0  0  0  0
    8.7712   -6.3391    0.0000 C   0  0  0  0  0  0  0  0  0  0  0  0
    9.1050   -7.8015    0.0000 C   0  0  0  0  0  0  0  0  0  0  0  0
    8.0054   -8.8217    0.0000 C   0  0  0  0  0  0  0  0  0  0  0  0
    8.3392  -10.2841    0.0000 C   0  0  0  0  0  0  0  0  0  0  0  0
    7.2396  -11.3044    0.0000 N   0  0  0  0  0  0  0  0  0  0  0  0
    7.5734  -12.7668    0.0000 C   0  0  0  0  0  0  0  0  0  0  0  0
    8.3693  -12.8104    0.0000 N   0  0  0  0  0  0  0  0  0  0  0  0
    6.7533  -14.0228    0.0000 N   0  0  0  0  0  0  0  0  0  0  0  0
    7.2806   -6.5070    0.0000 C   0  0  0  0  0  0  0  0  0  0  0  0
    7.2806   -8.0070    0.0000 O   0  0  0  0  0  0  0  0  0  0  0  0
    5.7900   -6.3391    0.0000 N   0  0  0  0  0  0  0  0  0  0  0  0
    8.4050   -9.4496    0.0000 C   0  0  0  0  0  0  0  0  0  0  0  0
    9.3635   -8.2958    0.0000 N   0  0  0  0  0  0  0  0  0  0  0  0
    6.9092   -9.5617    0.0000 O   0  0  0  0  0  0  0  0  0  0  0  0
  2  1  1  1
  2  3  1  0
  3  4  1  0
  4  5  2  0
  4  6  1  0
  6  7  1  6
  7  8  1  0
  8  9  2  0
  9 10  1  0
 10 11  2  0
 11 12  1  0
 12 13  2  0
  6 14  1  0
 14 15  1  0
 15 16  2  0
 15 17  1  0
 17 18  1  1
 18 19  1  0
 19 20  1  0
 20 21  1  0
 21 22  1  0
 22 23  2  0
 22 24  1  0
 17 25  1  0
 25 26  1  0
 26 27  2  0
 26 28  1  0
 28 29  1  6
 29 30  1  0
 30 31  1  0
 31 32  1  0
 28 33  1  0
 33 34  1  0
 34 35  2  0
 36 34  1  6
 36 37  1  0
 37 38  1  0
 38 39  1  0
 39 40  2  0
 39 41  1  0
 41 42  2  0
 42 43  1  0
 43 44  2  0
 44 45  1  0
 45 46  2  0
 45 47  1  0
 47 48  2  0
 47 49  1  0
 49 50  1  0
 50 51  1  6
 51 52  1  0
 52 53  2  0
 53 54  1  0
 54 55  2  0
 55 56  1  0
 56 57  2  0
 57 58  1  0
 58 59  2  0
 59 60  1  0
 60 61  2  0
 50 62  1  0
 62 63  2  0
 62 64  1  0
 64 65  1  0
 65 66  1  1
 66 67  1  0
 65 68  1  0
 68 69  2  0
 68 70  1  0
 70 71  1  0
 71 72  1  1
 72 73  1  0
 73 74  1  0
 73 75  2  0
 71 76  1  0
 76 77  2  0
 76 78  1  0
 78 79  1  0
 79 80  1  6
 80 81  1  0
 81 82  2  0
 82 83  1  0
 83 84  2  0
 84 85  1  0
 85 86  2  0
 86 87  1  0
 87 88  2  0
 88 89  1  0
 89 90  2  0
 79 91  1  0
 91 92  2  0
 91 93  1  0
 93 94  1  0
 94 95  1  1
 95 96  2  0
 96 97  1  0
 97 98  2  0
 98 99  1  0
 99100  2  0
 94101  1  0
101102  2  0
101103  1  0
104103  1  6
104105  1  0
105106  1  0
106107  1  0
107108  1  0
108109  1  0
109110  1  0
110111  2  0
104112  1  0
112113  2  0
112114  1  0
114115  1  0
115116  1  6
116117  1  0
117118  2  0
118119  1  0
119120  2  0
120121  1  0
121122  2  0
115123  1  0
123124  2  0
123125  1  0
125126  1  0
126127  1  1
127128  1  0
128129  1  0
129130  1  0
129131  2  0
126132  1  0
132133  2  0
132134  1  0
134135  1  0
135136  1  6
136137  1  0
137138  1  0
138139  1  0
139140  1  0
140141  2  0
140142  1  0
135143  1  0
143144  2  0
143145  1  0
145146  1  0
146147  1  1
147148  1  0
148149  1  0
149150  1  0
150151  1  0
151152  2  0
151153  1  0
146154  1  0
154155  2  0
154156  1  0
  2157  1  0
157158  1  0
157159  2  0
 13  8  1  0
156 36  1  0
 46 41  1  0
 61 52  1  0
 90 81  1  0
100 95  1  0
122117  1  0
110 43  1  0
 60 55  1  0
 89 84  1  0
M  END
>  <molecule_chembl_id>  (110) 
CHEMBL4851139

>  <canonical_smiles>  (110) 
C[C@@H](NC(=O)[C@H](Cc1ccccc1)NC(=O)[C@@H](CCCNC(=N)N)NC(=O)[C@H](CCCN)NC(=O)[C@@H]1CNC(=O)c2cc3cc(c2)C(=O)N[C@H](Cc2ccc4ccccc4c2)C(=O)N[C@@H](CO)C(=O)N[C@@H](CC(N)=O)C(=O)N[C@H](Cc2ccc4ccccc4c2)C(=O)N[C@@H](c2ccccc2)C(=O)N[C@@H](CCCCNC3=O)C(=O)N[C@H](Cc2ccccc2)C(=O)N[C@@H](CCC(N)=O)C(=O)N[C@H](CCCNC(=N)N)C(=O)N[C@@H](CCCNC(=N)N)C(=O)N1)C(N)=O

>  <pchembl_value_mean>  (110) 
5.68

>  <inchi>  (110) 
InChI=1S/C108H138N30O21/c1-59(88(112)142)124-98(152)78(49-60-21-5-2-6-22-60)132-95(149)75(34-19-45-121-107(115)116)125-92(146)73(32-17-42-109)128-103(157)83-57-123-90(144)70-53-69-54-71(55-70)91(145)131-80(51-62-36-38-64-25-11-13-29-67(64)47-62)100(154)137-84(58-139)104(158)135-82(56-86(111)141)101(155)134-81(52-63-37-39-65-26-12-14-30-68(65)48-63)102(156)138-87(66-27-9-4-10-28-66)105(159)130-72(31-15-16-43-119-89(69)143)94(148)133-79(50-61-23-7-3-8-24-61)99(153)129-77(40-41-85(110)140)97(151)127-74(33-18-44-120-106(113)114)93(147)126-76(96(150)136-83)35-20-46-122-108(117)118/h2-14,21-30,36-39,47-48,53-55,59,72-84,87,139H,15-20,31-35,40-46,49-52,56-58,109H2,1H3,(H2,110,140)(H2,111,141)(H2,112,142)(H,119,143)(H,123,144)(H,124,152)(H,125,146)(H,126,147)(H,127,151)(H,128,157)(H,129,153)(H,130,159)(H,131,145)(H,132,149)(H,133,148)(H,134,155)(H,135,158)(H,136,150)(H,137,154)(H,138,156)(H4,113,114,120)(H4,115,116,121)(H4,117,118,122)/t59-,72+,73+,74-,75-,76+,77+,78+,79-,80-,81-,82+,83+,84+,87+/m1/s1

$$$$

     RDKit          2D

 42 48  0  0  0  0  0  0  0  0999 V2000
    4.8107  -10.9304    0.0000 C   0  0  0  0  0  0  0  0  0  0  0  0
    4.0607   -9.6313    0.0000 C   0  0  0  0  0  0  0  0  0  0  0  0
    4.8107   -8.3323    0.0000 C   0  0  0  0  0  0  0  0  0  0  0  0
    6.3107   -8.3323    0.0000 O   0  0  0  0  0  0  0  0  0  0  0  0
    4.0607   -7.0333    0.0000 N   0  0  0  0  0  0  0  0  0  0  0  0
    2.6118   -6.6450    0.0000 C   0  0  0  0  0  0  0  0  0  0  0  0
    3.0000   -5.1962    0.0000 C   0  0  0  0  0  0  0  0  0  0  0  0
    3.7500   -3.8971    0.0000 C   0  0  0  0  0  0  0  0  0  0  0  0
    3.0000   -2.5981    0.0000 C   0  0  0  0  0  0  0  0  0  0  0  0
    1.5000   -2.5981    0.0000 N   0  0  0  0  0  0  0  0  0  0  0  0
    0.7500   -1.2990    0.0000 C   0  0  0  0  0  0  0  0  0  0  0  0
    1.5000    0.0000    0.0000 N   0  0  0  0  0  0  0  0  0  0  0  0
    0.7500    1.2990    0.0000 C   0  0  0  0  0  0  0  0  0  0  0  0
    1.5000    2.5981    0.0000 O   0  0  0  0  0  0  0  0  0  0  0  0
    3.0000    2.5981    0.0000 C   0  0  0  0  0  0  0  0  0  0  0  0
    3.7500    1.2990    0.0000 C   0  0  0  0  0  0  0  0  0  0  0  0
    5.2500    1.2990    0.0000 C   0  0  0  0  0  0  0  0  0  0  0  0
    6.0000    2.5981    0.0000 O   0  0  0  0  0  0  0  0  0  0  0  0
    5.2500    3.8971    0.0000 C   0  0  0  0  0  0  0  0  0  0  0  0
    3.7500    3.8971    0.0000 C   0  0  0  0  0  0  0  0  0  0  0  0
   -0.7500    1.2990    0.0000 N   0  0  0  0  0  0  0  0  0  0  0  0
   -1.5000    0.0000    0.0000 C   0  0  0  0  0  0  0  0  0  0  0  0
   -3.0000    0.0000    0.0000 C   0  0  0  0  0  0  0  0  0  0  0  0
   -3.7500    1.2990    0.0000 F   0  0  0  0  0  0  0  0  0  0  0  0
   -3.7500   -1.2990    0.0000 C   0  0  0  0  0  0  0  0  0  0  0  0
   -5.2500   -1.2990    0.0000 C   0  0  0  0  0  0  0  0  0  0  0  0
   -6.0000    0.0000    0.0000 C   0  0  0  0  0  0  0  0  0  0  0  0
   -5.2500    1.2990    0.0000 C   0  0  0  0  0  0  0  0  0  0  0  0
   -7.5000    0.0000    0.0000 C   0  0  0  0  0  0  0  0  0  0  0  0
   -8.2500   -1.2990    0.0000 C   0  0  0  0  0  0  0  0  0  0  0  0
   -7.5000   -2.5981    0.0000 C   0  0  0  0  0  0  0  0  0  0  0  0
   -7.9635   -4.0247    0.0000 N   0  0  0  0  0  0  0  0  0  0  0  0
   -6.7500   -4.9063    0.0000 N   0  0  0  0  0  0  0  0  0  0  0  0
   -5.5365   -4.0247    0.0000 C   0  0  0  0  0  0  0  0  0  0  0  0
   -6.0000   -2.5981    0.0000 C   0  0  0  0  0  0  0  0  0  0  0  0
   -3.0000   -2.5981    0.0000 C   0  0  0  0  0  0  0  0  0  0  0  0
   -3.7500   -3.8971    0.0000 Cl  0  0  0  0  0  0  0  0  0  0  0  0
   -1.5000   -2.5981    0.0000 C   0  0  0  0  0  0  0  0  0  0  0  0
   -0.7500   -1.2990    0.0000 C   0  0  0  0  0  0  0  0  0  0  0  0
    0.7500   -3.8971    0.0000 C   0  0  0  0  0  0  0  0  0  0  0  0
    1.5000   -5.1962    0.0000 C   0  0  0  0  0  0  0  0  0  0  0  0
    4.4489   -5.5844    0.0000 C   0  0  0  0  0  0  0  0  0  0  0  0
  1  2  2  0
  2  3  1  0
  3  4  2  0
  3  5  1  0
  5  6  1  0
  6  7  1  0
  7  8  1  0
  8  9  1  0
  9 10  1  0
 10 11  1  0
 11 12  2  0
 12 13  1  0
 13 14  1  0
 14 15  1  0
 15 16  1  0
 16 17  1  0
 17 18  1  0
 18 19  1  0
 19 20  1  0
 13 21  2  0
 21 22  1  0
 22 23  2  0
 23 24  1  0
 23 25  1  0
 25 26  1  0
 26 27  2  0
 27 28  1  0
 27 29  1  0
 29 30  2  0
 30 31  1  0
 31 32  1  0
 32 33  1  0
 33 34  2  0
 34 35  1  0
 25 36  2  0
 36 37  1  0
 36 38  1  0
 38 39  2  0
 10 40  1  0
 40 41  1  0
  7 42  1  0
 42  5  1  0
 41  7  1  0
 39 11  1  0
 20 15  1  0
 39 22  1  0
 35 26  1  0
 35 31  2  0
M  END
>  <molecule_chembl_id>  (111) 
CHEMBL5202742

>  <canonical_smiles>  (111) 
C=CC(=O)N1CC2(CCN(c3nc(OC4CCOCC4)nc4c(F)c(-c5c(C)ccc6[nH]ncc56)c(Cl)cc34)CC2)C1

>  <pchembl_value_mean>  (111) 
5.68

>  <inchi>  (111) 
InChI=1S/C31H32ClFN6O3/c1-3-24(40)39-16-31(17-39)8-10-38(11-9-31)29-20-14-22(32)26(25-18(2)4-5-23-21(25)15-34-37-23)27(33)28(20)35-30(36-29)42-19-6-12-41-13-7-19/h3-5,14-15,19H,1,6-13,16-17H2,2H3,(H,34,37)

$$$$

     RDKit          2D

 48 54  0  0  0  0  0  0  0  0999 V2000
   -3.3818  -11.6074    0.0000 C   0  0  0  0  0  0  0  0  0  0  0  0
   -2.1424  -10.7624    0.0000 C   0  0  0  0  0  0  0  0  0  0  0  0
   -0.7910  -11.4132    0.0000 C   0  0  0  0  0  0  0  0  0  0  0  0
    0.4484  -10.5682    0.0000 C   0  0  0  0  0  0  0  0  0  0  0  0
    1.7998  -11.2191    0.0000 N   0  0  0  0  0  0  0  0  0  0  0  0
    0.3363   -9.0724    0.0000 N   0  0  0  0  0  0  0  0  0  0  0  0
   -1.0152   -8.4216    0.0000 C   0  0  0  0  0  0  0  0  0  0  0  0
   -1.1273   -6.9258    0.0000 C   0  0  0  0  0  0  0  0  0  0  0  0
   -2.4787   -6.2750    0.0000 C   0  0  0  0  0  0  0  0  0  0  0  0
   -2.5908   -4.7792    0.0000 C   0  0  0  0  0  0  0  0  0  0  0  0
   -4.0307   -4.3423    0.0000 N   0  0  0  0  0  0  0  0  0  0  0  0
   -4.2543   -2.8590    0.0000 C   0  0  0  0  0  0  0  0  0  0  0  0
   -5.6506   -2.3110    0.0000 O   0  0  0  0  0  0  0  0  0  0  0  0
   -5.8742   -0.8278    0.0000 C   0  0  0  0  0  0  0  0  0  0  0  0
   -7.2705   -0.2797    0.0000 C   0  0  0  0  0  0  0  0  0  0  0  0
   -8.5346   -1.0873    0.0000 C   0  0  0  0  0  0  0  0  0  0  0  0
   -9.6932   -0.1346    0.0000 C   0  0  0  0  0  0  0  0  0  0  0  0
   -9.1452    1.2617    0.0000 C   0  0  0  0  0  0  0  0  0  0  0  0
   -7.6479    1.1720    0.0000 N   0  0  0  0  0  0  0  0  0  0  0  0
   -6.6952    2.3306    0.0000 C   0  0  0  0  0  0  0  0  0  0  0  0
   -3.0815   -1.9238    0.0000 N   0  0  0  0  0  0  0  0  0  0  0  0
   -1.6852   -2.4718    0.0000 C   0  0  0  0  0  0  0  0  0  0  0  0
   -1.3515   -3.9342    0.0000 C   0  0  0  0  0  0  0  0  0  0  0  0
   -0.0000   -4.5850    0.0000 C   0  0  0  0  0  0  0  0  0  0  0  0
    0.1121   -6.0808    0.0000 C   0  0  0  0  0  0  0  0  0  0  0  0
    1.4635   -6.7316    0.0000 Cl  0  0  0  0  0  0  0  0  0  0  0  0
    1.3515   -3.9342    0.0000 O   0  0  0  0  0  0  0  0  0  0  0  0
    1.6852   -2.4718    0.0000 C   0  0  0  0  0  0  0  0  0  0  0  0
    0.7500   -1.2990    0.0000 C   0  0  0  0  0  0  0  0  0  0  0  0
    1.5000    0.0000    0.0000 C   0  0  0  0  0  0  0  0  0  0  0  0
    0.7500    1.2990    0.0000 N   0  0  0  0  0  0  0  0  0  0  0  0
    1.5000    2.5981    0.0000 C   0  0  0  0  0  0  0  0  0  0  0  0
    0.7500    3.8971    0.0000 O   0  0  0  0  0  0  0  0  0  0  0  0
    3.0000    2.5981    0.0000 C   0  0  0  0  0  0  0  0  0  0  0  0
    3.7500    3.8971    0.0000 C   0  0  0  0  0  0  0  0  0  0  0  0
    5.2500    3.8971    0.0000 C   0  0  0  0  0  0  0  0  0  0  0  0
    6.1317    5.1106    0.0000 C   0  0  0  0  0  0  0  0  0  0  0  0
    7.5583    4.6471    0.0000 C   0  0  0  0  0  0  0  0  0  0  0  0
    7.5583    3.1471    0.0000 N   0  0  0  0  0  0  0  0  0  0  0  0
    6.1317    2.6836    0.0000 C   0  0  0  0  0  0  0  0  0  0  0  0
   -0.7500    1.2990    0.0000 C   0  0  0  0  0  0  0  0  0  0  0  0
   -1.5000    0.0000    0.0000 C   0  0  0  0  0  0  0  0  0  0  0  0
   -0.7500   -1.2990    0.0000 N   0  0  0  0  0  0  0  0  0  0  0  0
   -2.2545   -9.2666    0.0000 C   0  0  0  0  0  0  0  0  0  0  0  0
   -3.6060   -8.6157    0.0000 C   0  0  0  0  0  0  0  0  0  0  0  0
   -4.9574   -7.9649    0.0000 F   0  0  0  0  0  0  0  0  0  0  0  0
   -4.2568   -9.9672    0.0000 F   0  0  0  0  0  0  0  0  0  0  0  0
   -2.9552   -7.2643    0.0000 F   0  0  0  0  0  0  0  0  0  0  0  0
  1  2  1  0
  2  3  2  0
  3  4  1  0
  4  5  1  0
  4  6  2  0
  6  7  1  0
  7  8  1  0
  8  9  2  0
  9 10  1  0
 10 11  2  0
 11 12  1  0
 12 13  1  0
 13 14  1  0
 15 14  1  6
 15 16  1  0
 16 17  1  0
 17 18  1  0
 18 19  1  0
 19 20  1  0
 12 21  2  0
 21 22  1  0
 22 23  2  0
 23 24  1  0
 24 25  2  0
 25 26  1  0
 24 27  1  0
 27 28  1  0
 29 28  1  1
 29 30  1  0
 30 31  1  0
 31 32  1  0
 32 33  2  0
 32 34  1  0
 34 35  1  0
 35 36  1  0
 36 37  1  0
 37 38  1  0
 38 39  1  0
 39 40  1  0
 31 41  1  0
 41 42  1  0
 42 43  1  0
  7 44  2  0
 44 45  1  0
 45 46  1  0
 45 47  1  0
 45 48  1  0
 44  2  1  0
 25  8  1  0
 43 29  1  0
 23 10  1  0
 40 36  1  0
 19 15  1  0
 43 22  1  0
M  END
>  <molecule_chembl_id>  (112) 
CHEMBL5439684

>  <canonical_smiles>  (112) 
Cc1cc(N)nc(-c2cc3nc(OC[C@@H]4CCCN4C)nc4c3c(c2Cl)OC[C@@H]2CN(C(=O)CCC3CCNC3)CCN42)c1C(F)(F)F

>  <pchembl_value_mean>  (112) 
5.68

>  <inchi>  (112) 
InChI=1S/C33H40ClF3N8O3/c1-18-12-24(38)41-29(27(18)33(35,36)37)22-13-23-26-30(28(22)34)47-17-21-15-44(25(46)6-5-19-7-8-39-14-19)10-11-45(21)31(26)42-32(40-23)48-16-20-4-3-9-43(20)2/h12-13,19-21,39H,3-11,14-17H2,1-2H3,(H2,38,41)/t19?,20-,21-/m0/s1

$$$$

     RDKit          2D

 49 55  0  0  0  0  0  0  0  0999 V2000
   -3.3818  -11.6074    0.0000 C   0  0  0  0  0  0  0  0  0  0  0  0
   -2.1424  -10.7624    0.0000 C   0  0  0  0  0  0  0  0  0  0  0  0
   -0.7910  -11.4132    0.0000 C   0  0  0  0  0  0  0  0  0  0  0  0
    0.4484  -10.5682    0.0000 C   0  0  0  0  0  0  0  0  0  0  0  0
    1.7998  -11.2191    0.0000 N   0  0  0  0  0  0  0  0  0  0  0  0
    0.3363   -9.0724    0.0000 N   0  0  0  0  0  0  0  0  0  0  0  0
   -1.0152   -8.4216    0.0000 C   0  0  0  0  0  0  0  0  0  0  0  0
   -1.1273   -6.9258    0.0000 C   0  0  0  0  0  0  0  0  0  0  0  0
   -2.4787   -6.2750    0.0000 C   0  0  0  0  0  0  0  0  0  0  0  0
   -2.5908   -4.7792    0.0000 C   0  0  0  0  0  0  0  0  0  0  0  0
   -4.0307   -4.3423    0.0000 N   0  0  0  0  0  0  0  0  0  0  0  0
   -4.2543   -2.8590    0.0000 C   0  0  0  0  0  0  0  0  0  0  0  0
   -5.6506   -2.3110    0.0000 O   0  0  0  0  0  0  0  0  0  0  0  0
   -5.8742   -0.8278    0.0000 C   0  0  0  0  0  0  0  0  0  0  0  0
   -7.2705   -0.2797    0.0000 C   0  0  0  0  0  0  0  0  0  0  0  0
   -8.5346   -1.0873    0.0000 C   0  0  0  0  0  0  0  0  0  0  0  0
   -9.6932   -0.1346    0.0000 C   0  0  0  0  0  0  0  0  0  0  0  0
   -9.1452    1.2617    0.0000 C   0  0  0  0  0  0  0  0  0  0  0  0
   -7.6479    1.1720    0.0000 N   0  0  0  0  0  0  0  0  0  0  0  0
   -6.6952    2.3306    0.0000 C   0  0  0  0  0  0  0  0  0  0  0  0
   -3.0815   -1.9238    0.0000 N   0  0  0  0  0  0  0  0  0  0  0  0
   -1.6852   -2.4718    0.0000 C   0  0  0  0  0  0  0  0  0  0  0  0
   -1.3515   -3.9342    0.0000 C   0  0  0  0  0  0  0  0  0  0  0  0
   -0.0000   -4.5850    0.0000 C   0  0  0  0  0  0  0  0  0  0  0  0
    0.1121   -6.0808    0.0000 C   0  0  0  0  0  0  0  0  0  0  0  0
    1.4635   -6.7316    0.0000 Cl  0  0  0  0  0  0  0  0  0  0  0  0
    1.3515   -3.9342    0.0000 O   0  0  0  0  0  0  0  0  0  0  0  0
    1.6852   -2.4718    0.0000 C   0  0  0  0  0  0  0  0  0  0  0  0
    0.7500   -1.2990    0.0000 C   0  0  0  0  0  0  0  0  0  0  0  0
    1.5000    0.0000    0.0000 C   0  0  0  0  0  0  0  0  0  0  0  0
    0.7500    1.2990    0.0000 N   0  0  0  0  0  0  0  0  0  0  0  0
    1.5000    2.5981    0.0000 C   0  0  0  0  0  0  0  0  0  0  0  0
    0.7500    3.8971    0.0000 O   0  0  0  0  0  0  0  0  0  0  0  0
    3.0000    2.5981    0.0000 C   0  0  0  0  0  0  0  0  0  0  0  0
    3.7500    3.8971    0.0000 C   0  0  0  0  0  0  0  0  0  0  0  0
    5.2500    3.8971    0.0000 C   0  0  0  0  0  0  0  0  0  0  0  0
    6.0000    2.5981    0.0000 C   0  0  0  0  0  0  0  0  0  0  0  0
    7.5000    2.5981    0.0000 C   0  0  0  0  0  0  0  0  0  0  0  0
    8.2500    3.8971    0.0000 C   0  0  0  0  0  0  0  0  0  0  0  0
    7.5000    5.1962    0.0000 C   0  0  0  0  0  0  0  0  0  0  0  0
    6.0000    5.1962    0.0000 N   0  0  0  0  0  0  0  0  0  0  0  0
   -0.7500    1.2990    0.0000 C   0  0  0  0  0  0  0  0  0  0  0  0
   -1.5000    0.0000    0.0000 C   0  0  0  0  0  0  0  0  0  0  0  0
   -0.7500   -1.2990    0.0000 N   0  0  0  0  0  0  0  0  0  0  0  0
   -2.2545   -9.2666    0.0000 C   0  0  0  0  0  0  0  0  0  0  0  0
   -3.6060   -8.6157    0.0000 C   0  0  0  0  0  0  0  0  0  0  0  0
   -4.9574   -7.9649    0.0000 F   0  0  0  0  0  0  0  0  0  0  0  0
   -4.2568   -9.9672    0.0000 F   0  0  0  0  0  0  0  0  0  0  0  0
   -2.9552   -7.2643    0.0000 F   0  0  0  0  0  0  0  0  0  0  0  0
  1  2  1  0
  2  3  2  0
  3  4  1  0
  4  5  1  0
  4  6  2  0
  6  7  1  0
  7  8  1  0
  8  9  2  0
  9 10  1  0
 10 11  2  0
 11 12  1  0
 12 13  1  0
 13 14  1  0
 15 14  1  6
 15 16  1  0
 16 17  1  0
 17 18  1  0
 18 19  1  0
 19 20  1  0
 12 21  2  0
 21 22  1  0
 22 23  2  0
 23 24  1  0
 24 25  2  0
 25 26  1  0
 24 27  1  0
 27 28  1  0
 29 28  1  1
 29 30  1  0
 30 31  1  0
 31 32  1  0
 32 33  2  0
 32 34  1  0
 34 35  1  0
 36 35  1  6
 36 37  1  0
 37 38  1  0
 38 39  1  0
 39 40  1  0
 40 41  1  0
 31 42  1  0
 42 43  1  0
 43 44  1  0
  7 45  2  0
 45 46  1  0
 46 47  1  0
 46 48  1  0
 46 49  1  0
 45  2  1  0
 25  8  1  0
 44 29  1  0
 23 10  1  0
 41 36  1  0
 19 15  1  0
 44 22  1  0
M  END
>  <molecule_chembl_id>  (113) 
CHEMBL5400366

>  <canonical_smiles>  (113) 
Cc1cc(N)nc(-c2cc3nc(OC[C@@H]4CCCN4C)nc4c3c(c2Cl)OC[C@@H]2CN(C(=O)CC[C@H]3CCCCN3)CCN42)c1C(F)(F)F

>  <pchembl_value_mean>  (113) 
5.7

>  <inchi>  (113) 
InChI=1S/C34H42ClF3N8O3/c1-19-14-25(39)42-30(28(19)34(36,37)38)23-15-24-27-31(29(23)35)48-18-22-16-45(26(47)9-8-20-6-3-4-10-40-20)12-13-46(22)32(27)43-33(41-24)49-17-21-7-5-11-44(21)2/h14-15,20-22,40H,3-13,16-18H2,1-2H3,(H2,39,42)/t20-,21+,22+/m1/s1

$$$$

     RDKit          2D

 49 55  0  0  0  0  0  0  0  0999 V2000
   -3.3818  -11.6074    0.0000 C   0  0  0  0  0  0  0  0  0  0  0  0
   -2.1424  -10.7624    0.0000 C   0  0  0  0  0  0  0  0  0  0  0  0
   -0.7910  -11.4132    0.0000 C   0  0  0  0  0  0  0  0  0  0  0  0
    0.4484  -10.5682    0.0000 C   0  0  0  0  0  0  0  0  0  0  0  0
    1.7998  -11.2191    0.0000 N   0  0  0  0  0  0  0  0  0  0  0  0
    0.3363   -9.0724    0.0000 N   0  0  0  0  0  0  0  0  0  0  0  0
   -1.0152   -8.4216    0.0000 C   0  0  0  0  0  0  0  0  0  0  0  0
   -1.1273   -6.9258    0.0000 C   0  0  0  0  0  0  0  0  0  0  0  0
   -2.4787   -6.2750    0.0000 C   0  0  0  0  0  0  0  0  0  0  0  0
   -2.5908   -4.7792    0.0000 C   0  0  0  0  0  0  0  0  0  0  0  0
   -4.0307   -4.3423    0.0000 N   0  0  0  0  0  0  0  0  0  0  0  0
   -4.2543   -2.8590    0.0000 C   0  0  0  0  0  0  0  0  0  0  0  0
   -5.6506   -2.3110    0.0000 O   0  0  0  0  0  0  0  0  0  0  0  0
   -5.8742   -0.8278    0.0000 C   0  0  0  0  0  0  0  0  0  0  0  0
   -7.2705   -0.2797    0.0000 C   0  0  0  0  0  0  0  0  0  0  0  0
   -8.5346   -1.0873    0.0000 C   0  0  0  0  0  0  0  0  0  0  0  0
   -9.6932   -0.1346    0.0000 C   0  0  0  0  0  0  0  0  0  0  0  0
   -9.1452    1.2617    0.0000 C   0  0  0  0  0  0  0  0  0  0  0  0
   -7.6479    1.1720    0.0000 N   0  0  0  0  0  0  0  0  0  0  0  0
   -6.6952    2.3306    0.0000 C   0  0  0  0  0  0  0  0  0  0  0  0
   -3.0815   -1.9238    0.0000 N   0  0  0  0  0  0  0  0  0  0  0  0
   -1.6852   -2.4718    0.0000 C   0  0  0  0  0  0  0  0  0  0  0  0
   -1.3515   -3.9342    0.0000 C   0  0  0  0  0  0  0  0  0  0  0  0
   -0.0000   -4.5850    0.0000 C   0  0  0  0  0  0  0  0  0  0  0  0
    0.1121   -6.0808    0.0000 C   0  0  0  0  0  0  0  0  0  0  0  0
    1.4635   -6.7316    0.0000 Cl  0  0  0  0  0  0  0  0  0  0  0  0
    1.3515   -3.9342    0.0000 O   0  0  0  0  0  0  0  0  0  0  0  0
    1.6852   -2.4718    0.0000 C   0  0  0  0  0  0  0  0  0  0  0  0
    0.7500   -1.2990    0.0000 C   0  0  0  0  0  0  0  0  0  0  0  0
    1.5000    0.0000    0.0000 C   0  0  0  0  0  0  0  0  0  0  0  0
    0.7500    1.2990    0.0000 N   0  0  0  0  0  0  0  0  0  0  0  0
    1.5000    2.5981    0.0000 C   0  0  0  0  0  0  0  0  0  0  0  0
    0.7500    3.8971    0.0000 O   0  0  0  0  0  0  0  0  0  0  0  0
    3.0000    2.5981    0.0000 C   0  0  0  0  0  0  0  0  0  0  0  0
    3.7500    3.8971    0.0000 C   0  0  0  0  0  0  0  0  0  0  0  0
    5.2500    3.8971    0.0000 C   0  0  0  0  0  0  0  0  0  0  0  0
    5.0932    2.4053    0.0000 C   0  0  0  0  0  0  0  0  0  0  0  0
    6.7172    3.5852    0.0000 C   0  0  0  0  0  0  0  0  0  0  0  0
    7.4672    4.8843    0.0000 C   0  0  0  0  0  0  0  0  0  0  0  0
    6.4635    5.9990    0.0000 C   0  0  0  0  0  0  0  0  0  0  0  0
    5.0932    5.3889    0.0000 N   0  0  0  0  0  0  0  0  0  0  0  0
   -0.7500    1.2990    0.0000 C   0  0  0  0  0  0  0  0  0  0  0  0
   -1.5000    0.0000    0.0000 C   0  0  0  0  0  0  0  0  0  0  0  0
   -0.7500   -1.2990    0.0000 N   0  0  0  0  0  0  0  0  0  0  0  0
   -2.2545   -9.2666    0.0000 C   0  0  0  0  0  0  0  0  0  0  0  0
   -3.6060   -8.6157    0.0000 C   0  0  0  0  0  0  0  0  0  0  0  0
   -4.9574   -7.9649    0.0000 F   0  0  0  0  0  0  0  0  0  0  0  0
   -4.2568   -9.9672    0.0000 F   0  0  0  0  0  0  0  0  0  0  0  0
   -2.9552   -7.2643    0.0000 F   0  0  0  0  0  0  0  0  0  0  0  0
  1  2  1  0
  2  3  2  0
  3  4  1  0
  4  5  1  0
  4  6  2  0
  6  7  1  0
  7  8  1  0
  8  9  2  0
  9 10  1  0
 10 11  2  0
 11 12  1  0
 12 13  1  0
 13 14  1  0
 15 14  1  6
 15 16  1  0
 16 17  1  0
 17 18  1  0
 18 19  1  0
 19 20  1  0
 12 21  2  0
 21 22  1  0
 22 23  2  0
 23 24  1  0
 24 25  2  0
 25 26  1  0
 24 27  1  0
 27 28  1  0
 29 28  1  1
 29 30  1  0
 30 31  1  0
 31 32  1  0
 32 33  2  0
 32 34  1  0
 34 35  1  0
 35 36  1  0
 36 37  1  1
 36 38  1  0
 38 39  1  0
 39 40  1  0
 40 41  1  0
 31 42  1  0
 42 43  1  0
 43 44  1  0
  7 45  2  0
 45 46  1  0
 46 47  1  0
 46 48  1  0
 46 49  1  0
 45  2  1  0
 25  8  1  0
 44 29  1  0
 23 10  1  0
 41 36  1  0
 19 15  1  0
 44 22  1  0
M  END
>  <molecule_chembl_id>  (114) 
CHEMBL5400481

>  <canonical_smiles>  (114) 
Cc1cc(N)nc(-c2cc3nc(OC[C@@H]4CCCN4C)nc4c3c(c2Cl)OC[C@@H]2CN(C(=O)CC[C@@]3(C)CCCN3)CCN42)c1C(F)(F)F

>  <pchembl_value_mean>  (114) 
5.72

>  <inchi>  (114) 
InChI=1S/C34H42ClF3N8O3/c1-19-14-24(39)42-29(27(19)34(36,37)38)22-15-23-26-30(28(22)35)48-18-21-16-45(25(47)7-9-33(2)8-5-10-40-33)12-13-46(21)31(26)43-32(41-23)49-17-20-6-4-11-44(20)3/h14-15,20-21,40H,4-13,16-18H2,1-3H3,(H2,39,42)/t20-,21-,33+/m0/s1

$$$$

     RDKit          2D

 37 41  0  0  0  0  0  0  0  0999 V2000
    9.7500   -3.8971    0.0000 C   0  0  0  0  0  0  0  0  0  0  0  0
    8.2500   -3.8971    0.0000 C   0  0  0  0  0  0  0  0  0  0  0  0
    7.5000   -2.5981    0.0000 C   0  0  0  0  0  0  0  0  0  0  0  0
    8.2500   -1.2990    0.0000 O   0  0  0  0  0  0  0  0  0  0  0  0
    6.0000   -2.5981    0.0000 N   0  0  0  0  0  0  0  0  0  0  0  0
    5.2500   -3.8971    0.0000 C   0  0  0  0  0  0  0  0  0  0  0  0
    3.7500   -3.8971    0.0000 C   0  0  0  0  0  0  0  0  0  0  0  0
    3.0000   -2.5981    0.0000 N   0  0  0  0  0  0  0  0  0  0  0  0
    1.5000   -2.5981    0.0000 C   0  0  0  0  0  0  0  0  0  0  0  0
    0.7500   -3.8971    0.0000 N   0  0  0  0  0  0  0  0  0  0  0  0
   -0.7500   -3.8971    0.0000 C   0  0  0  0  0  0  0  0  0  0  0  0
   -1.5000   -5.1962    0.0000 O   0  0  0  0  0  0  0  0  0  0  0  0
   -3.0000   -5.1962    0.0000 C   0  0  0  0  0  0  0  0  0  0  0  0
   -3.7500   -6.4952    0.0000 C   0  0  0  0  0  0  0  0  0  0  0  0
   -5.2500   -6.4952    0.0000 N   0  0  0  0  0  0  0  0  0  0  0  0
   -6.0000   -7.7942    0.0000 C   0  0  0  0  0  0  0  0  0  0  0  0
   -6.0000   -5.1962    0.0000 C   0  0  0  0  0  0  0  0  0  0  0  0
   -1.5000   -2.5981    0.0000 N   0  0  0  0  0  0  0  0  0  0  0  0
   -0.7500   -1.2990    0.0000 C   0  0  0  0  0  0  0  0  0  0  0  0
    0.7500   -1.2990    0.0000 C   0  0  0  0  0  0  0  0  0  0  0  0
    1.5000    0.0000    0.0000 C   0  0  0  0  0  0  0  0  0  0  0  0
    0.7500    1.2990    0.0000 C   0  0  0  0  0  0  0  0  0  0  0  0
   -0.7500    1.2990    0.0000 N   0  0  0  0  0  0  0  0  0  0  0  0
   -1.5000    2.5981    0.0000 C   0  0  0  0  0  0  0  0  0  0  0  0
   -3.0000    2.5981    0.0000 C   0  0  0  0  0  0  0  0  0  0  0  0
   -3.7500    3.8971    0.0000 C   0  0  0  0  0  0  0  0  0  0  0  0
   -5.2500    3.8971    0.0000 O   0  0  0  0  0  0  0  0  0  0  0  0
   -3.0000    5.1962    0.0000 C   0  0  0  0  0  0  0  0  0  0  0  0
   -1.5000    5.1962    0.0000 C   0  0  0  0  0  0  0  0  0  0  0  0
   -0.7500    6.4952    0.0000 C   0  0  0  0  0  0  0  0  0  0  0  0
    0.7500    6.4952    0.0000 C   0  0  0  0  0  0  0  0  0  0  0  0
    1.5000    5.1962    0.0000 C   0  0  0  0  0  0  0  0  0  0  0  0
    0.7500    3.8971    0.0000 C   0  0  0  0  0  0  0  0  0  0  0  0
   -0.7500    3.8971    0.0000 C   0  0  0  0  0  0  0  0  0  0  0  0
   -1.5000    0.0000    0.0000 C   0  0  0  0  0  0  0  0  0  0  0  0
    3.7500   -1.2990    0.0000 C   0  0  0  0  0  0  0  0  0  0  0  0
    5.2500   -1.2990    0.0000 C   0  0  0  0  0  0  0  0  0  0  0  0
  1  2  2  0
  2  3  1  0
  3  4  2  0
  3  5  1  0
  5  6  1  0
  6  7  1  0
  7  8  1  0
  8  9  1  0
  9 10  2  0
 10 11  1  0
 11 12  1  0
 12 13  1  0
 13 14  1  0
 14 15  1  0
 15 16  1  0
 15 17  1  0
 11 18  2  0
 18 19  1  0
 19 20  2  0
 20 21  1  0
 21 22  1  0
 22 23  1  0
 23 24  1  0
 24 25  2  0
 25 26  1  0
 26 27  1  0
 26 28  2  0
 28 29  1  0
 29 30  2  0
 30 31  1  0
 31 32  2  0
 32 33  1  0
 33 34  2  0
 23 35  1  0
  8 36  1  0
 36 37  1  0
 37  5  1  0
 20  9  1  0
 34 24  1  0
 35 19  1  0
 34 29  1  0
M  END
>  <molecule_chembl_id>  (115) 
CHEMBL4550990

>  <canonical_smiles>  (115) 
C=CC(=O)N1CCN(c2nc(OCCN(C)C)nc3c2CCN(c2cc(O)cc4ccccc24)C3)CC1

>  <pchembl_value_mean>  (115) 
5.72

>  <inchi>  (115) 
InChI=1S/C28H34N6O3/c1-4-26(36)32-11-13-33(14-12-32)27-23-9-10-34(19-24(23)29-28(30-27)37-16-15-31(2)3)25-18-21(35)17-20-7-5-6-8-22(20)25/h4-8,17-18,35H,1,9-16,19H2,2-3H3

$$$$

     RDKit          2D

100106  0  0  0  0  0  0  0  0999 V2000
   -6.2869   -2.4383    0.0000 C   0  0  0  0  0  0  0  0  0  0  0  0
   -4.8773   -2.9514    0.0000 C   0  0  0  0  0  0  0  0  0  0  0  0
   -5.0436   -1.4606    0.0000 C   0  0  0  0  0  0  0  0  0  0  0  0
   -5.9629   -3.9865    0.0000 C   0  0  0  0  0  0  0  0  0  0  0  0
   -6.8330   -5.2084    0.0000 O   0  0  0  0  0  0  0  0  0  0  0  0
   -7.4561   -6.5728    0.0000 C   0  0  0  0  0  0  0  0  0  0  0  0
   -8.8736   -6.0822    0.0000 O   0  0  0  0  0  0  0  0  0  0  0  0
   -7.8098   -8.0305    0.0000 C   0  0  0  0  0  0  0  0  0  0  0  0
   -9.2945   -7.8170    0.0000 C   0  0  0  0  0  0  0  0  0  0  0  0
   -9.8520   -6.4245    0.0000 C   0  0  0  0  0  0  0  0  0  0  0  0
   -8.9248   -5.2454    0.0000 C   0  0  0  0  0  0  0  0  0  0  0  0
   -9.4823   -3.8529    0.0000 C   0  0  0  0  0  0  0  0  0  0  0  0
  -10.9670   -3.6394    0.0000 C   0  0  0  0  0  0  0  0  0  0  0  0
  -11.8942   -4.8185    0.0000 C   0  0  0  0  0  0  0  0  0  0  0  0
  -11.3367   -6.2110    0.0000 C   0  0  0  0  0  0  0  0  0  0  0  0
   -7.8811   -9.5288    0.0000 N   0  0  0  0  0  0  0  0  0  0  0  0
   -7.6677  -11.0136    0.0000 C   0  0  0  0  0  0  0  0  0  0  0  0
   -9.1254  -11.3672    0.0000 O   0  0  0  0  0  0  0  0  0  0  0  0
   -7.1771  -12.4311    0.0000 C   0  0  0  0  0  0  0  0  0  0  0  0
   -8.5415  -13.0542    0.0000 C   0  0  0  0  0  0  0  0  0  0  0  0
   -9.7634  -12.1841    0.0000 C   0  0  0  0  0  0  0  0  0  0  0  0
  -11.1278  -12.8072    0.0000 C   0  0  0  0  0  0  0  0  0  0  0  0
  -12.3497  -11.9371    0.0000 N   0  0  0  0  0  0  0  0  0  0  0  0
  -13.7141  -12.5602    0.0000 C   0  0  0  0  0  0  0  0  0  0  0  0
  -13.8567  -14.0535    0.0000 N   0  0  0  0  0  0  0  0  0  0  0  0
  -14.9360  -11.6902    0.0000 N   0  0  0  0  0  0  0  0  0  0  0  0
   -6.4271  -13.7301    0.0000 N   0  0  0  0  0  0  0  0  0  0  0  0
   -5.4448  -14.8637    0.0000 C   0  0  0  0  0  0  0  0  0  0  0  0
   -6.4799  -15.9493    0.0000 O   0  0  0  0  0  0  0  0  0  0  0  0
   -4.2657  -15.7910    0.0000 C   0  0  0  0  0  0  0  0  0  0  0  0
   -2.9324  -16.4783    0.0000 N   0  0  0  0  0  0  0  0  0  0  0  0
   -1.4932  -16.9009    0.0000 C   0  0  0  0  0  0  0  0  0  0  0  0
   -1.7771  -18.3738    0.0000 O   0  0  0  0  0  0  0  0  0  0  0  0
   -0.0000  -17.0435    0.0000 C   0  0  0  0  0  0  0  0  0  0  0  0
   -0.0000  -18.5435    0.0000 C   0  0  0  0  0  0  0  0  0  0  0  0
   -1.2990  -19.2935    0.0000 C   0  0  0  0  0  0  0  0  0  0  0  0
   -2.5981  -18.5435    0.0000 C   0  0  0  0  0  0  0  0  0  0  0  0
   -3.8971  -19.2935    0.0000 C   0  0  0  0  0  0  0  0  0  0  0  0
   -3.8971  -20.7935    0.0000 C   0  0  0  0  0  0  0  0  0  0  0  0
   -5.1962  -21.5435    0.0000 O   0  0  0  0  0  0  0  0  0  0  0  0
   -2.5981  -21.5435    0.0000 C   0  0  0  0  0  0  0  0  0  0  0  0
   -1.2990  -20.7935    0.0000 C   0  0  0  0  0  0  0  0  0  0  0  0
    1.4932  -16.9009    0.0000 N   0  0  0  0  0  0  0  0  0  0  0  0
    2.9324  -16.4783    0.0000 C   0  0  0  0  0  0  0  0  0  0  0  0
    3.4899  -17.8708    0.0000 O   0  0  0  0  0  0  0  0  0  0  0  0
    4.2657  -15.7910    0.0000 C   0  0  0  0  0  0  0  0  0  0  0  0
    5.0767  -17.0528    0.0000 C   0  0  0  0  0  0  0  0  0  0  0  0
    4.3893  -18.3861    0.0000 C   0  0  0  0  0  0  0  0  0  0  0  0
    2.8910  -18.4575    0.0000 C   0  0  0  0  0  0  0  0  0  0  0  0
    2.2037  -19.7907    0.0000 C   0  0  0  0  0  0  0  0  0  0  0  0
    3.0146  -21.0526    0.0000 C   0  0  0  0  0  0  0  0  0  0  0  0
    2.3273  -22.3858    0.0000 C   0  0  0  0  0  0  0  0  0  0  0  0
    3.1383  -23.6477    0.0000 C   0  0  0  0  0  0  0  0  0  0  0  0
    4.6366  -23.5764    0.0000 C   0  0  0  0  0  0  0  0  0  0  0  0
    5.3239  -22.2431    0.0000 C   0  0  0  0  0  0  0  0  0  0  0  0
    4.5129  -20.9812    0.0000 C   0  0  0  0  0  0  0  0  0  0  0  0
    5.2003  -19.6480    0.0000 C   0  0  0  0  0  0  0  0  0  0  0  0
    5.4448  -14.8637    0.0000 N   0  0  0  0  0  0  0  0  0  0  0  0
    6.4271  -13.7301    0.0000 C   0  0  0  0  0  0  0  0  0  0  0  0
    7.6489  -14.6002    0.0000 O   0  0  0  0  0  0  0  0  0  0  0  0
    7.1771  -12.4311    0.0000 C   0  0  0  0  0  0  0  0  0  0  0  0
    8.5415  -13.0542    0.0000 C   0  0  0  0  0  0  0  0  0  0  0  0
    8.6841  -14.5474    0.0000 C   0  0  0  0  0  0  0  0  0  0  0  0
   10.0486  -15.1705    0.0000 C   0  0  0  0  0  0  0  0  0  0  0  0
   10.1911  -16.6637    0.0000 N   0  0  0  0  0  0  0  0  0  0  0  0
    7.6677  -11.0136    0.0000 N   0  0  0  0  0  0  0  0  0  0  0  0
    7.8811   -9.5288    0.0000 C   0  0  0  0  0  0  0  0  0  0  0  0
    9.3794   -9.6002    0.0000 O   0  0  0  0  0  0  0  0  0  0  0  0
    7.8098   -8.0305    0.0000 C   0  0  0  0  0  0  0  0  0  0  0  0
    9.2945   -7.8170    0.0000 C   0  0  0  0  0  0  0  0  0  0  0  0
   10.2217   -8.9961    0.0000 C   0  0  0  0  0  0  0  0  0  0  0  0
   11.7065   -8.7827    0.0000 C   0  0  0  0  0  0  0  0  0  0  0  0
   12.6337   -9.9617    0.0000 N   0  0  0  0  0  0  0  0  0  0  0  0
   12.2640   -7.3901    0.0000 O   0  0  0  0  0  0  0  0  0  0  0  0
    7.4561   -6.5728    0.0000 N   0  0  0  0  0  0  0  0  0  0  0  0
    6.8330   -5.2084    0.0000 C   0  0  0  0  0  0  0  0  0  0  0  0
    8.1320   -4.4584    0.0000 O   0  0  0  0  0  0  0  0  0  0  0  0
    5.9629   -3.9865    0.0000 C   0  0  0  0  0  0  0  0  0  0  0  0
    4.8773   -2.9514    0.0000 C   0  0  0  0  0  0  0  0  0  0  0  0
    5.8046   -1.7723    0.0000 C   0  0  0  0  0  0  0  0  0  0  0  0
    7.2893   -1.9858    0.0000 C   0  0  0  0  0  0  0  0  0  0  0  0
    8.2165   -0.8067    0.0000 C   0  0  0  0  0  0  0  0  0  0  0  0
    9.7013   -1.0202    0.0000 C   0  0  0  0  0  0  0  0  0  0  0  0
   10.6285    0.1589    0.0000 C   0  0  0  0  0  0  0  0  0  0  0  0
   10.0710    1.5515    0.0000 C   0  0  0  0  0  0  0  0  0  0  0  0
    8.5863    1.7649    0.0000 C   0  0  0  0  0  0  0  0  0  0  0  0
    7.6590    0.5859    0.0000 C   0  0  0  0  0  0  0  0  0  0  0  0
    3.6154   -2.1404    0.0000 N   0  0  0  0  0  0  0  0  0  0  0  0
    2.2229   -1.5829    0.0000 C   0  0  0  0  0  0  0  0  0  0  0  0
    2.6455   -0.1437    0.0000 O   0  0  0  0  0  0  0  0  0  0  0  0
    0.7500   -1.2990    0.0000 C   0  0  0  0  0  0  0  0  0  0  0  0
    1.5000    0.0000    0.0000 C   0  0  0  0  0  0  0  0  0  0  0  0
    0.7500    1.2990    0.0000 C   0  0  0  0  0  0  0  0  0  0  0  0
   -0.7500    1.2990    0.0000 C   0  0  0  0  0  0  0  0  0  0  0  0
   -1.5000    0.0000    0.0000 C   0  0  0  0  0  0  0  0  0  0  0  0
   -0.7500   -1.2990    0.0000 N   0  0  0  0  0  0  0  0  0  0  0  0
   -2.2229   -1.5829    0.0000 C   0  0  0  0  0  0  0  0  0  0  0  0
   -2.6455   -0.1437    0.0000 O   0  0  0  0  0  0  0  0  0  0  0  0
   -3.6154   -2.1404    0.0000 C   0  0  0  0  0  0  0  0  0  0  0  0
   -4.3028   -0.8072    0.0000 O   0  0  0  0  0  0  0  0  0  0  0  0
  1  2  1  0
  2  3  1  0
  2  4  1  0
  4  5  1  0
  5  6  1  0
  6  7  2  0
  6  8  1  0
  8  9  1  1
  9 10  1  0
 10 11  2  0
 11 12  1  0
 12 13  2  0
 13 14  1  0
 14 15  2  0
  8 16  1  0
 16 17  1  0
 17 18  2  0
 17 19  1  0
 19 20  1  1
 20 21  1  0
 21 22  1  0
 22 23  1  0
 23 24  1  0
 24 25  2  0
 24 26  1  0
 19 27  1  0
 27 28  1  0
 28 29  2  0
 28 30  1  0
 30 31  1  0
 31 32  1  0
 32 33  2  0
 32 34  1  0
 34 35  1  1
 35 36  1  0
 36 37  2  0
 37 38  1  0
 38 39  2  0
 39 40  1  0
 39 41  1  0
 41 42  2  0
 34 43  1  0
 43 44  1  0
 44 45  2  0
 44 46  1  0
 46 47  1  6
 47 48  1  0
 48 49  2  0
 49 50  1  0
 50 51  2  0
 51 52  1  0
 52 53  2  0
 53 54  1  0
 54 55  2  0
 55 56  1  0
 56 57  2  0
 46 58  1  0
 58 59  1  0
 59 60  2  0
 59 61  1  0
 61 62  1  1
 62 63  1  0
 63 64  1  0
 64 65  1  0
 61 66  1  0
 66 67  1  0
 67 68  2  0
 67 69  1  0
 69 70  1  1
 70 71  1  0
 71 72  1  0
 72 73  1  0
 72 74  2  0
 69 75  1  0
 75 76  1  0
 76 77  2  0
 76 78  1  0
 78 79  1  0
 79 80  1  6
 80 81  1  0
 81 82  1  0
 82 83  2  0
 83 84  1  0
 84 85  2  0
 85 86  1  0
 86 87  2  0
 79 88  1  0
 88 89  1  0
 89 90  2  0
 89 91  1  0
 91 92  1  1
 92 93  1  0
 93 94  1  0
 94 95  1  0
 95 96  1  0
 96 97  1  0
 97 98  2  0
 97 99  1  0
 99100  2  0
 99  2  1  0
 15 10  1  0
 42 36  1  0
 57 48  1  0
 87 82  1  0
 96 91  1  0
 56 51  1  0
M  END
>  <molecule_chembl_id>  (116) 
CHEMBL3218637

>  <canonical_smiles>  (116) 
CC1(C)COC(=O)[C@H](Cc2ccccc2)NC(=O)[C@H](CCCNC(=N)N)NC(=O)CNC(=O)[C@H](Cc2ccc(O)cc2)NC(=O)[C@@H](Cc2ccc3ccccc3c2)NC(=O)[C@H](CCCN)NC(=O)[C@H](CCC(N)=O)NC(=O)C[C@@H](CCc2ccccc2)NC(=O)[C@@H]2CCCCN2C(=O)C1=O

>  <pchembl_value_mean>  (116) 
5.75

>  <inchi>  (116) 
InChI=1S/C72H92N14O14/c1-72(2)43-100-70(99)57(39-45-17-7-4-8-18-45)85-64(93)52(22-14-35-77-71(75)76)81-61(90)42-78-63(92)55(38-46-26-30-51(87)31-27-46)83-67(96)56(40-47-24-28-48-19-9-10-20-49(48)37-47)84-65(94)53(21-13-34-73)82-66(95)54(32-33-59(74)88)80-60(89)41-50(29-25-44-15-5-3-6-16-44)79-68(97)58-23-11-12-36-86(58)69(98)62(72)91/h3-10,15-20,24,26-28,30-31,37,50,52-58,87H,11-14,21-23,25,29,32-36,38-43,73H2,1-2H3,(H2,74,88)(H,78,92)(H,79,97)(H,80,89)(H,81,90)(H,82,95)(H,83,96)(H,84,94)(H,85,93)(H4,75,76,77)/t50-,52+,53+,54+,55+,56-,57+,58+/m1/s1

$$$$

     RDKit          2D

158167  0  0  0  0  0  0  0  0999 V2000
   -2.3282  -16.7674    0.0000 C   0  0  0  0  0  0  0  0  0  0  0  0
   -1.6774  -15.4159    0.0000 C   0  0  0  0  0  0  0  0  0  0  0  0
   -2.5224  -14.1766    0.0000 C   0  0  0  0  0  0  0  0  0  0  0  0
   -4.0182  -14.2887    0.0000 C   0  0  0  0  0  0  0  0  0  0  0  0
   -4.6690  -15.6401    0.0000 O   0  0  0  0  0  0  0  0  0  0  0  0
   -4.8631  -13.0493    0.0000 N   0  0  0  0  0  0  0  0  0  0  0  0
   -6.3589  -13.1614    0.0000 C   0  0  0  0  0  0  0  0  0  0  0  0
   -7.2039  -11.9220    0.0000 C   0  0  0  0  0  0  0  0  0  0  0  0
   -8.6997  -12.0341    0.0000 C   0  0  0  0  0  0  0  0  0  0  0  0
   -9.5447  -10.7948    0.0000 C   0  0  0  0  0  0  0  0  0  0  0  0
  -11.0405  -10.9069    0.0000 C   0  0  0  0  0  0  0  0  0  0  0  0
  -11.6913  -12.2583    0.0000 C   0  0  0  0  0  0  0  0  0  0  0  0
  -13.1871  -12.3704    0.0000 F   0  0  0  0  0  0  0  0  0  0  0  0
  -10.8464  -13.4977    0.0000 C   0  0  0  0  0  0  0  0  0  0  0  0
   -9.3506  -13.3856    0.0000 C   0  0  0  0  0  0  0  0  0  0  0  0
   -7.0098  -14.5129    0.0000 C   0  0  0  0  0  0  0  0  0  0  0  0
   -8.5056  -14.6249    0.0000 N   0  0  0  0  0  0  0  0  0  0  0  0
   -6.1648  -15.7522    0.0000 O   0  0  0  0  0  0  0  0  0  0  0  0
   -0.1816  -15.3038    0.0000 N   0  0  0  0  0  0  0  0  0  0  0  0
    0.4693  -13.9524    0.0000 C   0  0  0  0  0  0  0  0  0  0  0  0
   -0.3757  -12.7130    0.0000 O   0  0  0  0  0  0  0  0  0  0  0  0
    1.9651  -13.8403    0.0000 C   0  0  0  0  0  0  0  0  0  0  0  0
    2.8100  -15.0796    0.0000 C   0  0  0  0  0  0  0  0  0  0  0  0
    2.1592  -16.4311    0.0000 C   0  0  0  0  0  0  0  0  0  0  0  0
    3.0042  -17.6705    0.0000 C   0  0  0  0  0  0  0  0  0  0  0  0
    2.3534  -19.0219    0.0000 N   0  0  0  0  0  0  0  0  0  0  0  0
    3.1984  -20.2613    0.0000 C   0  0  0  0  0  0  0  0  0  0  0  0
    4.6942  -20.1492    0.0000 N   0  0  0  0  0  0  0  0  0  0  0  0
    2.5475  -21.6127    0.0000 N   0  0  0  0  0  0  0  0  0  0  0  0
    2.6159  -12.4888    0.0000 N   0  0  0  0  0  0  0  0  0  0  0  0
    1.7709  -11.2495    0.0000 C   0  0  0  0  0  0  0  0  0  0  0  0
    0.2751  -11.3616    0.0000 O   0  0  0  0  0  0  0  0  0  0  0  0
    2.4217   -9.8980    0.0000 C   0  0  0  0  0  0  0  0  0  0  0  0
    1.5768   -8.6587    0.0000 C   0  0  0  0  0  0  0  0  0  0  0  0
    0.0810   -8.7708    0.0000 C   0  0  0  0  0  0  0  0  0  0  0  0
   -0.5699  -10.1222    0.0000 C   0  0  0  0  0  0  0  0  0  0  0  0
   -2.0657  -10.2343    0.0000 N   0  0  0  0  0  0  0  0  0  0  0  0
    2.2276   -7.3072    0.0000 N   0  0  0  0  0  0  0  0  0  0  0  0
    3.7234   -7.1951    0.0000 C   0  0  0  0  0  0  0  0  0  0  0  0
    4.5684   -8.4345    0.0000 O   0  0  0  0  0  0  0  0  0  0  0  0
    4.3742   -5.8437    0.0000 C   0  0  0  0  0  0  0  0  0  0  0  0
    3.1041   -5.0456    0.0000 C   0  0  0  0  0  0  0  0  0  0  0  0
    2.0435   -3.9849    0.0000 N   0  0  0  0  0  0  0  0  0  0  0  0
    1.2454   -2.7149    0.0000 C   0  0  0  0  0  0  0  0  0  0  0  0
   -0.1060   -3.3657    0.0000 O   0  0  0  0  0  0  0  0  0  0  0  0
    0.7500   -1.2990    0.0000 C   0  0  0  0  0  0  0  0  0  0  0  0
    1.5000    0.0000    0.0000 C   0  0  0  0  0  0  0  0  0  0  0  0
    0.7500    1.2990    0.0000 C   0  0  0  0  0  0  0  0  0  0  0  0
   -0.7500    1.2990    0.0000 C   0  0  0  0  0  0  0  0  0  0  0  0
   -1.5000    0.0000    0.0000 C   0  0  0  0  0  0  0  0  0  0  0  0
   -0.7500   -1.2990    0.0000 C   0  0  0  0  0  0  0  0  0  0  0  0
   -2.7514    0.8271    0.0000 C   0  0  0  0  0  0  0  0  0  0  0  0
   -3.7181   -0.3198    0.0000 O   0  0  0  0  0  0  0  0  0  0  0  0
   -3.7782    1.9205    0.0000 N   0  0  0  0  0  0  0  0  0  0  0  0
   -4.5253    3.2212    0.0000 C   0  0  0  0  0  0  0  0  0  0  0  0
   -5.9040    2.6302    0.0000 C   0  0  0  0  0  0  0  0  0  0  0  0
   -6.0815    1.1408    0.0000 C   0  0  0  0  0  0  0  0  0  0  0  0
   -4.8803    0.2423    0.0000 C   0  0  0  0  0  0  0  0  0  0  0  0
   -5.0578   -1.2471    0.0000 C   0  0  0  0  0  0  0  0  0  0  0  0
   -6.4365   -1.8381    0.0000 C   0  0  0  0  0  0  0  0  0  0  0  0
   -6.6140   -3.3276    0.0000 C   0  0  0  0  0  0  0  0  0  0  0  0
   -7.9927   -3.9186    0.0000 C   0  0  0  0  0  0  0  0  0  0  0  0
   -9.1939   -3.0201    0.0000 C   0  0  0  0  0  0  0  0  0  0  0  0
   -9.0163   -1.5307    0.0000 C   0  0  0  0  0  0  0  0  0  0  0  0
   -7.6377   -0.9397    0.0000 C   0  0  0  0  0  0  0  0  0  0  0  0
   -7.4602    0.5498    0.0000 C   0  0  0  0  0  0  0  0  0  0  0  0
   -4.9522    4.6592    0.0000 C   0  0  0  0  0  0  0  0  0  0  0  0
   -6.4300    4.4021    0.0000 O   0  0  0  0  0  0  0  0  0  0  0  0
   -5.0361    6.1568    0.0000 N   0  0  0  0  0  0  0  0  0  0  0  0
   -4.7722    7.6335    0.0000 C   0  0  0  0  0  0  0  0  0  0  0  0
   -6.2082    8.0669    0.0000 C   0  0  0  0  0  0  0  0  0  0  0  0
   -6.5509    9.5273    0.0000 O   0  0  0  0  0  0  0  0  0  0  0  0
   -4.1750    9.0094    0.0000 C   0  0  0  0  0  0  0  0  0  0  0  0
   -5.4723    9.7624    0.0000 O   0  0  0  0  0  0  0  0  0  0  0  0
   -3.2765   10.2106    0.0000 N   0  0  0  0  0  0  0  0  0  0  0  0
   -2.1253   11.1722    0.0000 C   0  0  0  0  0  0  0  0  0  0  0  0
   -2.9467   12.4273    0.0000 C   0  0  0  0  0  0  0  0  0  0  0  0
   -2.2705   13.7662    0.0000 C   0  0  0  0  0  0  0  0  0  0  0  0
   -3.0919   15.0213    0.0000 C   0  0  0  0  0  0  0  0  0  0  0  0
   -2.4156   16.3602    0.0000 N   0  0  0  0  0  0  0  0  0  0  0  0
   -4.5895   14.9375    0.0000 O   0  0  0  0  0  0  0  0  0  0  0  0
   -0.7833   11.8423    0.0000 C   0  0  0  0  0  0  0  0  0  0  0  0
   -1.2931   13.2530    0.0000 O   0  0  0  0  0  0  0  0  0  0  0  0
    0.6770   12.1849    0.0000 N   0  0  0  0  0  0  0  0  0  0  0  0
    2.1770   12.1815    0.0000 C   0  0  0  0  0  0  0  0  0  0  0  0
    2.3546   13.6710    0.0000 C   0  0  0  0  0  0  0  0  0  0  0  0
    1.1534   14.5694    0.0000 C   0  0  0  0  0  0  0  0  0  0  0  0
   -0.2253   13.9785    0.0000 C   0  0  0  0  0  0  0  0  0  0  0  0
   -1.4264   14.8769    0.0000 C   0  0  0  0  0  0  0  0  0  0  0  0
   -1.2489   16.3664    0.0000 C   0  0  0  0  0  0  0  0  0  0  0  0
   -2.4501   17.2648    0.0000 C   0  0  0  0  0  0  0  0  0  0  0  0
   -2.2725   18.7543    0.0000 C   0  0  0  0  0  0  0  0  0  0  0  0
   -0.8939   19.3453    0.0000 C   0  0  0  0  0  0  0  0  0  0  0  0
    0.3073   18.4468    0.0000 C   0  0  0  0  0  0  0  0  0  0  0  0
    0.1298   16.9574    0.0000 C   0  0  0  0  0  0  0  0  0  0  0  0
    1.3309   16.0589    0.0000 C   0  0  0  0  0  0  0  0  0  0  0  0
    3.6358   11.8323    0.0000 C   0  0  0  0  0  0  0  0  0  0  0  0
    4.1520   13.2407    0.0000 O   0  0  0  0  0  0  0  0  0  0  0  0
    4.9747   11.1561    0.0000 N   0  0  0  0  0  0  0  0  0  0  0  0
    6.1216   10.1893    0.0000 C   0  0  0  0  0  0  0  0  0  0  0  0
    7.2150   11.2162    0.0000 C   0  0  0  0  0  0  0  0  0  0  0  0
    8.6510   10.7827    0.0000 C   0  0  0  0  0  0  0  0  0  0  0  0
    9.7444   11.8096    0.0000 C   0  0  0  0  0  0  0  0  0  0  0  0
    9.4018   13.2699    0.0000 C   0  0  0  0  0  0  0  0  0  0  0  0
    7.9658   13.7034    0.0000 C   0  0  0  0  0  0  0  0  0  0  0  0
    6.8724   12.6765    0.0000 C   0  0  0  0  0  0  0  0  0  0  0  0
    7.0146    8.9841    0.0000 C   0  0  0  0  0  0  0  0  0  0  0  0
    8.3154    9.7311    0.0000 O   0  0  0  0  0  0  0  0  0  0  0  0
    7.6056    7.6054    0.0000 N   0  0  0  0  0  0  0  0  0  0  0  0
    8.7712    6.7221    0.0000 C   0  0  0  0  0  0  0  0  0  0  0  0
    7.2806    6.1901    0.0000 C   0  0  0  0  0  0  0  0  0  0  0  0
    5.9458    6.0397    0.0000 C   0  0  0  0  0  0  0  0  0  0  0  0
    4.6779    5.5960    0.0000 C   0  0  0  0  0  0  0  0  0  0  0  0
    3.5406    4.8814    0.0000 C   0  0  0  0  0  0  0  0  0  0  0  0
    2.5907    3.9316    0.0000 N   0  0  0  0  0  0  0  0  0  0  0  0
    1.5931    2.4904    0.0000 C   0  0  0  0  0  0  0  0  0  0  0  0
   -0.1060    3.7487    0.0000 O   0  0  0  0  0  0  0  0  0  0  0  0
   10.1870    6.2267    0.0000 C   0  0  0  0  0  0  0  0  0  0  0  0
   10.8378    7.5782    0.0000 O   0  0  0  0  0  0  0  0  0  0  0  0
   11.4571    5.4287    0.0000 N   0  0  0  0  0  0  0  0  0  0  0  0
   12.5177    4.3680    0.0000 C   0  0  0  0  0  0  0  0  0  0  0  0
   13.6905    5.3032    0.0000 C   0  0  0  0  0  0  0  0  0  0  0  0
   15.0868    4.7552    0.0000 C   0  0  0  0  0  0  0  0  0  0  0  0
   15.3104    3.2720    0.0000 C   0  0  0  0  0  0  0  0  0  0  0  0
   16.7067    2.7240    0.0000 C   0  0  0  0  0  0  0  0  0  0  0  0
   17.8794    3.6592    0.0000 C   0  0  0  0  0  0  0  0  0  0  0  0
   17.6559    5.1425    0.0000 C   0  0  0  0  0  0  0  0  0  0  0  0
   16.2596    5.6905    0.0000 C   0  0  0  0  0  0  0  0  0  0  0  0
   13.3158    3.0979    0.0000 C   0  0  0  0  0  0  0  0  0  0  0  0
   14.6672    3.7487    0.0000 O   0  0  0  0  0  0  0  0  0  0  0  0
   13.8112    1.6821    0.0000 N   0  0  0  0  0  0  0  0  0  0  0  0
   13.9792    0.1915    0.0000 C   0  0  0  0  0  0  0  0  0  0  0  0
   15.4792    0.1915    0.0000 C   0  0  0  0  0  0  0  0  0  0  0  0
   13.8112   -1.2990    0.0000 C   0  0  0  0  0  0  0  0  0  0  0  0
   15.2736   -1.6328    0.0000 O   0  0  0  0  0  0  0  0  0  0  0  0
   13.3158   -2.7149    0.0000 N   0  0  0  0  0  0  0  0  0  0  0  0
   12.5177   -3.9849    0.0000 C   0  0  0  0  0  0  0  0  0  0  0  0
   13.6905   -4.9202    0.0000 C   0  0  0  0  0  0  0  0  0  0  0  0
   13.4669   -6.4034    0.0000 C   0  0  0  0  0  0  0  0  0  0  0  0
   14.6397   -7.3387    0.0000 C   0  0  0  0  0  0  0  0  0  0  0  0
   14.4161   -8.8219    0.0000 N   0  0  0  0  0  0  0  0  0  0  0  0
   15.5889   -9.7571    0.0000 C   0  0  0  0  0  0  0  0  0  0  0  0
   16.9852   -9.2091    0.0000 N   0  0  0  0  0  0  0  0  0  0  0  0
   15.3653  -11.2404    0.0000 N   0  0  0  0  0  0  0  0  0  0  0  0
   11.4571   -5.0456    0.0000 C   0  0  0  0  0  0  0  0  0  0  0  0
   12.3923   -6.2184    0.0000 O   0  0  0  0  0  0  0  0  0  0  0  0
   10.1870   -5.8437    0.0000 N   0  0  0  0  0  0  0  0  0  0  0  0
    8.7712   -6.3391    0.0000 C   0  0  0  0  0  0  0  0  0  0  0  0
    9.1050   -7.8015    0.0000 C   0  0  0  0  0  0  0  0  0  0  0  0
    8.0054   -8.8217    0.0000 C   0  0  0  0  0  0  0  0  0  0  0  0
    8.3392  -10.2841    0.0000 C   0  0  0  0  0  0  0  0  0  0  0  0
    7.2396  -11.3044    0.0000 N   0  0  0  0  0  0  0  0  0  0  0  0
    7.5734  -12.7668    0.0000 C   0  0  0  0  0  0  0  0  0  0  0  0
    9.0067  -13.2089    0.0000 N   0  0  0  0  0  0  0  0  0  0  0  0
    6.4738  -13.7870    0.0000 N   0  0  0  0  0  0  0  0  0  0  0  0
    7.2806   -6.5070    0.0000 C   0  0  0  0  0  0  0  0  0  0  0  0
    7.2806   -8.0070    0.0000 O   0  0  0  0  0  0  0  0  0  0  0  0
    5.7900   -6.3391    0.0000 N   0  0  0  0  0  0  0  0  0  0  0  0
  2  1  1  6
  2  3  1  0
  3  4  1  0
  4  5  2  0
  4  6  1  0
  6  7  1  0
  7  8  1  6
  8  9  1  0
  9 10  2  0
 10 11  1  0
 11 12  2  0
 12 13  1  0
 12 14  1  0
 14 15  2  0
  7 16  1  0
 16 17  1  0
 16 18  2  0
  2 19  1  0
 19 20  1  0
 20 21  2  0
 20 22  1  0
 22 23  1  6
 23 24  1  0
 24 25  1  0
 25 26  1  0
 26 27  1  0
 27 28  2  0
 27 29  1  0
 22 30  1  0
 30 31  1  0
 31 32  2  0
 31 33  1  0
 34 33  1  6
 34 35  1  0
 35 36  1  0
 36 37  1  0
 34 38  1  0
 38 39  1  0
 39 40  2  0
 41 39  1  6
 41 42  1  0
 42 43  1  0
 43 44  1  0
 44 45  2  0
 44 46  1  0
 46 47  2  0
 47 48  1  0
 48 49  2  0
 49 50  1  0
 50 51  2  0
 50 52  1  0
 52 53  2  0
 52 54  1  0
 54 55  1  0
 55 56  1  6
 56 57  1  0
 57 58  2  0
 58 59  1  0
 59 60  2  0
 60 61  1  0
 61 62  2  0
 62 63  1  0
 63 64  2  0
 64 65  1  0
 65 66  2  0
 55 67  1  0
 67 68  2  0
 67 69  1  0
 69 70  1  0
 70 71  1  1
 71 72  1  0
 70 73  1  0
 73 74  2  0
 73 75  1  0
 75 76  1  0
 76 77  1  1
 77 78  1  0
 78 79  1  0
 79 80  1  0
 79 81  2  0
 76 82  1  0
 82 83  2  0
 82 84  1  0
 84 85  1  0
 85 86  1  6
 86 87  1  0
 87 88  2  0
 88 89  1  0
 89 90  2  0
 90 91  1  0
 91 92  2  0
 92 93  1  0
 93 94  2  0
 94 95  1  0
 95 96  2  0
 85 97  1  0
 97 98  2  0
 97 99  1  0
 99100  1  0
100101  1  1
101102  2  0
102103  1  0
103104  2  0
104105  1  0
105106  2  0
100107  1  0
107108  2  0
107109  1  0
110109  1  6
110111  1  0
111112  1  0
112113  1  0
113114  1  0
114115  1  0
115116  1  0
116117  2  0
110118  1  0
118119  2  0
118120  1  0
120121  1  0
121122  1  6
122123  1  0
123124  2  0
124125  1  0
125126  2  0
126127  1  0
127128  2  0
121129  1  0
129130  2  0
129131  1  0
131132  1  0
132133  1  1
132134  1  0
134135  2  0
134136  1  0
136137  1  0
137138  1  6
138139  1  0
139140  1  0
140141  1  0
141142  1  0
142143  2  0
142144  1  0
137145  1  0
145146  2  0
145147  1  0
147148  1  0
148149  1  1
149150  1  0
150151  1  0
151152  1  0
152153  1  0
153154  2  0
153155  1  0
148156  1  0
156157  2  0
156158  1  0
 15  9  1  0
158 41  1  0
 51 46  1  0
 66 57  1  0
 96 87  1  0
106101  1  0
128123  1  0
116 48  1  0
 65 60  1  0
 95 90  1  0
M  END
>  <molecule_chembl_id>  (117) 
CHEMBL4863517

>  <canonical_smiles>  (117) 
C[C@H](CC(=O)N[C@@H](Cc1ccc(F)cc1)C(N)=O)NC(=O)[C@@H](CCCNC(=N)N)NC(=O)C[C@H](CCN)NC(=O)[C@@H]1CNC(=O)c2cc3cc(c2)C(=O)N[C@H](Cc2ccc4ccccc4c2)C(=O)N[C@@H](CO)C(=O)N[C@@H](CCC(N)=O)C(=O)N[C@H](Cc2ccc4ccccc4c2)C(=O)N[C@@H](c2ccccc2)C(=O)N[C@@H](CCCCNC3=O)C(=O)N[C@H](Cc2ccccc2)C(=O)N[C@@H](C)C(=O)N[C@H](CCCNC(=N)N)C(=O)N[C@@H](CCCNC(=N)N)C(=O)N1

>  <pchembl_value_mean>  (117) 
5.77

>  <inchi>  (117) 
InChI=1S/C108H138FN29O20/c1-59(46-87(141)128-80(90(112)143)49-62-32-36-73(109)37-33-62)124-95(148)75(27-15-43-120-106(113)114)127-88(142)56-74(40-41-110)126-103(156)84-57-123-93(146)71-53-70-54-72(55-71)94(147)133-82(51-63-30-34-65-20-9-11-24-68(65)47-63)101(154)137-85(58-139)104(157)131-79(38-39-86(111)140)99(152)135-83(52-64-31-35-66-21-10-12-25-69(66)48-64)102(155)138-89(67-22-7-4-8-23-67)105(158)132-76(26-13-14-42-119-92(70)145)97(150)134-81(50-61-18-5-3-6-19-61)100(153)125-60(2)91(144)129-77(28-16-44-121-107(115)116)96(149)130-78(98(151)136-84)29-17-45-122-108(117)118/h3-12,18-25,30-37,47-48,53-55,59-60,74-85,89,139H,13-17,26-29,38-46,49-52,56-58,110H2,1-2H3,(H2,111,140)(H2,112,143)(H,119,145)(H,123,146)(H,124,148)(H,125,153)(H,126,156)(H,127,142)(H,128,141)(H,129,144)(H,130,149)(H,131,157)(H,132,158)(H,133,147)(H,134,150)(H,135,152)(H,136,151)(H,137,154)(H,138,155)(H4,113,114,120)(H4,115,116,121)(H4,117,118,122)/t59-,60+,74+,75-,76+,77-,78+,79+,80+,81-,82-,83-,84+,85+,89+/m1/s1

$$$$

     RDKit          2D

166175  0  0  0  0  0  0  0  0999 V2000
   15.4792   -0.1915    0.0000 C   0  0  0  0  0  0  0  0  0  0  0  0
   13.9792   -0.1915    0.0000 C   0  0  0  0  0  0  0  0  0  0  0  0
   13.8112   -1.6821    0.0000 N   0  0  0  0  0  0  0  0  0  0  0  0
   13.3158   -3.0979    0.0000 C   0  0  0  0  0  0  0  0  0  0  0  0
   14.6672   -3.7487    0.0000 O   0  0  0  0  0  0  0  0  0  0  0  0
   12.5177   -4.3680    0.0000 C   0  0  0  0  0  0  0  0  0  0  0  0
   13.6905   -5.3032    0.0000 C   0  0  0  0  0  0  0  0  0  0  0  0
   13.4669   -6.7865    0.0000 C   0  0  0  0  0  0  0  0  0  0  0  0
   12.0706   -7.3345    0.0000 C   0  0  0  0  0  0  0  0  0  0  0  0
   11.8471   -8.8177    0.0000 C   0  0  0  0  0  0  0  0  0  0  0  0
   13.0198   -9.7530    0.0000 C   0  0  0  0  0  0  0  0  0  0  0  0
   14.4161   -9.2050    0.0000 C   0  0  0  0  0  0  0  0  0  0  0  0
   14.6397   -7.7217    0.0000 C   0  0  0  0  0  0  0  0  0  0  0  0
   11.4571   -5.4287    0.0000 N   0  0  0  0  0  0  0  0  0  0  0  0
   10.1870   -6.2267    0.0000 C   0  0  0  0  0  0  0  0  0  0  0  0
   10.8378   -7.5782    0.0000 O   0  0  0  0  0  0  0  0  0  0  0  0
    8.7712   -6.7221    0.0000 C   0  0  0  0  0  0  0  0  0  0  0  0
    7.2806   -6.8901    0.0000 C   0  0  0  0  0  0  0  0  0  0  0  0
    5.7900   -6.7221    0.0000 C   0  0  0  0  0  0  0  0  0  0  0  0
    4.3742   -6.2267    0.0000 C   0  0  0  0  0  0  0  0  0  0  0  0
    3.1041   -5.4287    0.0000 C   0  0  0  0  0  0  0  0  0  0  0  0
    2.0435   -4.3680    0.0000 N   0  0  0  0  0  0  0  0  0  0  0  0
    1.2454   -3.0979    0.0000 C   0  0  0  0  0  0  0  0  0  0  0  0
   -0.1060   -3.7487    0.0000 O   0  0  0  0  0  0  0  0  0  0  0  0
    0.7500   -1.2990    0.0000 C   0  0  0  0  0  0  0  0  0  0  0  0
    1.5000    0.0000    0.0000 C   0  0  0  0  0  0  0  0  0  0  0  0
    0.7500    1.2990    0.0000 C   0  0  0  0  0  0  0  0  0  0  0  0
   -0.7500    1.2990    0.0000 C   0  0  0  0  0  0  0  0  0  0  0  0
   -1.5000    0.0000    0.0000 C   0  0  0  0  0  0  0  0  0  0  0  0
   -0.7500   -1.2990    0.0000 C   0  0  0  0  0  0  0  0  0  0  0  0
   -2.3002   -1.3623    0.0000 C   0  0  0  0  0  0  0  0  0  0  0  0
   -3.7181    0.3198    0.0000 O   0  0  0  0  0  0  0  0  0  0  0  0
   -3.2158   -2.3372    0.0000 N   0  0  0  0  0  0  0  0  0  0  0  0
   -3.8819   -3.4970    0.0000 C   0  0  0  0  0  0  0  0  0  0  0  0
   -5.9040   -2.6302    0.0000 C   0  0  0  0  0  0  0  0  0  0  0  0
   -6.0815   -1.1408    0.0000 C   0  0  0  0  0  0  0  0  0  0  0  0
   -4.8803   -0.2423    0.0000 C   0  0  0  0  0  0  0  0  0  0  0  0
   -5.0578    1.2471    0.0000 C   0  0  0  0  0  0  0  0  0  0  0  0
   -6.4365    1.8381    0.0000 C   0  0  0  0  0  0  0  0  0  0  0  0
   -6.6140    3.3276    0.0000 C   0  0  0  0  0  0  0  0  0  0  0  0
   -7.9927    3.9186    0.0000 C   0  0  0  0  0  0  0  0  0  0  0  0
   -9.1939    3.0201    0.0000 C   0  0  0  0  0  0  0  0  0  0  0  0
   -9.0163    1.5307    0.0000 C   0  0  0  0  0  0  0  0  0  0  0  0
   -7.6377    0.9397    0.0000 C   0  0  0  0  0  0  0  0  0  0  0  0
   -7.4602   -0.5498    0.0000 C   0  0  0  0  0  0  0  0  0  0  0  0
   -4.2626   -4.7792    0.0000 C   0  0  0  0  0  0  0  0  0  0  0  0
   -6.4300   -4.4021    0.0000 O   0  0  0  0  0  0  0  0  0  0  0  0
   -4.3373   -6.1146    0.0000 N   0  0  0  0  0  0  0  0  0  0  0  0
   -4.1021   -7.4312    0.0000 C   0  0  0  0  0  0  0  0  0  0  0  0
   -6.2082   -8.0669    0.0000 C   0  0  0  0  0  0  0  0  0  0  0  0
   -7.3016   -7.0400    0.0000 O   0  0  0  0  0  0  0  0  0  0  0  0
   -3.5696   -8.6581    0.0000 C   0  0  0  0  0  0  0  0  0  0  0  0
   -5.4723   -9.7624    0.0000 O   0  0  0  0  0  0  0  0  0  0  0  0
   -2.7685   -9.7291    0.0000 N   0  0  0  0  0  0  0  0  0  0  0  0
   -1.7420  -10.5864    0.0000 C   0  0  0  0  0  0  0  0  0  0  0  0
   -2.9467  -12.4273    0.0000 C   0  0  0  0  0  0  0  0  0  0  0  0
   -4.4444  -12.3434    0.0000 C   0  0  0  0  0  0  0  0  0  0  0  0
   -5.2658  -13.5985    0.0000 C   0  0  0  0  0  0  0  0  0  0  0  0
   -6.7634  -13.5147    0.0000 N   0  0  0  0  0  0  0  0  0  0  0  0
   -4.5895  -14.9375    0.0000 O   0  0  0  0  0  0  0  0  0  0  0  0
   -0.5454  -11.1840    0.0000 C   0  0  0  0  0  0  0  0  0  0  0  0
   -1.2931  -13.2530    0.0000 O   0  0  0  0  0  0  0  0  0  0  0  0
    0.7567  -11.4895    0.0000 N   0  0  0  0  0  0  0  0  0  0  0  0
    2.0942  -11.4864    0.0000 C   0  0  0  0  0  0  0  0  0  0  0  0
    2.3546  -13.6710    0.0000 C   0  0  0  0  0  0  0  0  0  0  0  0
    1.1534  -14.5694    0.0000 C   0  0  0  0  0  0  0  0  0  0  0  0
   -0.2253  -13.9785    0.0000 C   0  0  0  0  0  0  0  0  0  0  0  0
   -1.4264  -14.8769    0.0000 C   0  0  0  0  0  0  0  0  0  0  0  0
   -1.2489  -16.3664    0.0000 C   0  0  0  0  0  0  0  0  0  0  0  0
   -2.4501  -17.2648    0.0000 C   0  0  0  0  0  0  0  0  0  0  0  0
   -2.2725  -18.7543    0.0000 C   0  0  0  0  0  0  0  0  0  0  0  0
   -0.8939  -19.3453    0.0000 C   0  0  0  0  0  0  0  0  0  0  0  0
    0.3073  -18.4468    0.0000 C   0  0  0  0  0  0  0  0  0  0  0  0
    0.1298  -16.9574    0.0000 C   0  0  0  0  0  0  0  0  0  0  0  0
    1.3309  -16.0589    0.0000 C   0  0  0  0  0  0  0  0  0  0  0  0
    3.3949  -11.1751    0.0000 C   0  0  0  0  0  0  0  0  0  0  0  0
    4.1520  -13.2407    0.0000 O   0  0  0  0  0  0  0  0  0  0  0  0
    4.5887  -10.5721    0.0000 N   0  0  0  0  0  0  0  0  0  0  0  0
    5.6114   -9.7101    0.0000 C   0  0  0  0  0  0  0  0  0  0  0  0
    7.2150  -11.2162    0.0000 C   0  0  0  0  0  0  0  0  0  0  0  0
    6.8724  -12.6765    0.0000 C   0  0  0  0  0  0  0  0  0  0  0  0
    7.9658  -13.7034    0.0000 C   0  0  0  0  0  0  0  0  0  0  0  0
    9.4018  -13.2699    0.0000 C   0  0  0  0  0  0  0  0  0  0  0  0
    9.7444  -11.8096    0.0000 C   0  0  0  0  0  0  0  0  0  0  0  0
    8.6510  -10.7827    0.0000 C   0  0  0  0  0  0  0  0  0  0  0  0
    6.4076   -8.6354    0.0000 C   0  0  0  0  0  0  0  0  0  0  0  0
    8.3154   -9.7311    0.0000 O   0  0  0  0  0  0  0  0  0  0  0  0
    8.1358   -8.0625    0.0000 N   0  0  0  0  0  0  0  0  0  0  0  0
    1.2454    2.7149    0.0000 C   0  0  0  0  0  0  0  0  0  0  0  0
    0.0946    3.1047    0.0000 O   0  0  0  0  0  0  0  0  0  0  0  0
    2.0435    3.9849    0.0000 N   0  0  0  0  0  0  0  0  0  0  0  0
    3.1041    5.0456    0.0000 C   0  0  0  0  0  0  0  0  0  0  0  0
    4.3742    5.8437    0.0000 C   0  0  0  0  0  0  0  0  0  0  0  0
    3.7234    7.1951    0.0000 C   0  0  0  0  0  0  0  0  0  0  0  0
    2.9665    7.4453    0.0000 O   0  0  0  0  0  0  0  0  0  0  0  0
    4.5684    8.4345    0.0000 N   0  0  0  0  0  0  0  0  0  0  0  0
    3.9175    9.7859    0.0000 C   0  0  0  0  0  0  0  0  0  0  0  0
    4.7625   11.0253    0.0000 C   0  0  0  0  0  0  0  0  0  0  0  0
    4.1117   12.3767    0.0000 C   0  0  0  0  0  0  0  0  0  0  0  0
    4.9567   13.6161    0.0000 C   0  0  0  0  0  0  0  0  0  0  0  0
    4.3059   14.9675    0.0000 N   0  0  0  0  0  0  0  0  0  0  0  0
    2.4217    9.8980    0.0000 C   0  0  0  0  0  0  0  0  0  0  0  0
    1.5768    8.6587    0.0000 O   0  0  0  0  0  0  0  0  0  0  0  0
    1.7709   11.2495    0.0000 N   0  0  0  0  0  0  0  0  0  0  0  0
    0.2751   11.3616    0.0000 C   0  0  0  0  0  0  0  0  0  0  0  0
   -0.3757   12.7130    0.0000 C   0  0  0  0  0  0  0  0  0  0  0  0
   -1.8715   12.8251    0.0000 C   0  0  0  0  0  0  0  0  0  0  0  0
   -2.5224   14.1766    0.0000 C   0  0  0  0  0  0  0  0  0  0  0  0
   -4.0182   14.2887    0.0000 N   0  0  0  0  0  0  0  0  0  0  0  0
   -4.6690   15.6401    0.0000 C   0  0  0  0  0  0  0  0  0  0  0  0
   -3.8240   16.8795    0.0000 N   0  0  0  0  0  0  0  0  0  0  0  0
   -6.1648   15.7522    0.0000 N   0  0  0  0  0  0  0  0  0  0  0  0
   -0.5699   10.1222    0.0000 C   0  0  0  0  0  0  0  0  0  0  0  0
    0.0810    8.7708    0.0000 O   0  0  0  0  0  0  0  0  0  0  0  0
   -2.0657   10.2343    0.0000 N   0  0  0  0  0  0  0  0  0  0  0  0
   -2.9107    8.9949    0.0000 C   0  0  0  0  0  0  0  0  0  0  0  0
   -4.4065    9.1070    0.0000 C   0  0  0  0  0  0  0  0  0  0  0  0
   -5.2514    7.8677    0.0000 C   0  0  0  0  0  0  0  0  0  0  0  0
   -6.7473    7.9798    0.0000 C   0  0  0  0  0  0  0  0  0  0  0  0
   -7.5922    6.7404    0.0000 C   0  0  0  0  0  0  0  0  0  0  0  0
   -6.9414    5.3890    0.0000 C   0  0  0  0  0  0  0  0  0  0  0  0
   -7.6761    4.7341    0.0000 F   0  0  0  0  0  0  0  0  0  0  0  0
   -5.4456    5.2769    0.0000 C   0  0  0  0  0  0  0  0  0  0  0  0
   -4.6006    6.5162    0.0000 C   0  0  0  0  0  0  0  0  0  0  0  0
   -2.2598    7.6435    0.0000 C   0  0  0  0  0  0  0  0  0  0  0  0
   -0.7640    7.5314    0.0000 O   0  0  0  0  0  0  0  0  0  0  0  0
   -3.1048    6.4041    0.0000 N   0  0  0  0  0  0  0  0  0  0  0  0
   -2.4540    5.0527    0.0000 C   0  0  0  0  0  0  0  0  0  0  0  0
   -3.2990    3.8133    0.0000 C   0  0  0  0  0  0  0  0  0  0  0  0
   -0.9582    4.9406    0.0000 C   0  0  0  0  0  0  0  0  0  0  0  0
   -0.5684    3.7898    0.0000 O   0  0  0  0  0  0  0  0  0  0  0  0
   -0.1132    6.1799    0.0000 N   0  0  0  0  0  0  0  0  0  0  0  0
    1.3826    6.0678    0.0000 C   0  0  0  0  0  0  0  0  0  0  0  0
    2.2276    7.3072    0.0000 C   0  0  0  0  0  0  0  0  0  0  0  0
    3.7234    7.1951    0.0000 C   0  0  0  0  0  0  0  0  0  0  0  0
    4.5684    8.4345    0.0000 C   0  0  0  0  0  0  0  0  0  0  0  0
    6.0642    8.3224    0.0000 C   0  0  0  0  0  0  0  0  0  0  0  0
    6.9092    9.5617    0.0000 N   0  0  0  0  0  0  0  0  0  0  0  0
    2.0334    4.7164    0.0000 C   0  0  0  0  0  0  0  0  0  0  0  0
    0.9137    3.7183    0.0000 N   0  0  0  0  0  0  0  0  0  0  0  0
    3.4577    4.2457    0.0000 O   0  0  0  0  0  0  0  0  0  0  0  0
    5.7900    6.3391    0.0000 N   0  0  0  0  0  0  0  0  0  0  0  0
    7.2806    6.5070    0.0000 C   0  0  0  0  0  0  0  0  0  0  0  0
    7.2806    8.0070    0.0000 O   0  0  0  0  0  0  0  0  0  0  0  0
    8.7712    6.3391    0.0000 C   0  0  0  0  0  0  0  0  0  0  0  0
    9.1050    7.8015    0.0000 C   0  0  0  0  0  0  0  0  0  0  0  0
   10.5383    8.2436    0.0000 C   0  0  0  0  0  0  0  0  0  0  0  0
   10.8721    9.7060    0.0000 C   0  0  0  0  0  0  0  0  0  0  0  0
   12.3055   10.1481    0.0000 N   0  0  0  0  0  0  0  0  0  0  0  0
   12.6392   11.6105    0.0000 C   0  0  0  0  0  0  0  0  0  0  0  0
   11.5397   12.6308    0.0000 N   0  0  0  0  0  0  0  0  0  0  0  0
   14.0726   12.0527    0.0000 N   0  0  0  0  0  0  0  0  0  0  0  0
   10.1870    5.8437    0.0000 N   0  0  0  0  0  0  0  0  0  0  0  0
   11.4571    5.0456    0.0000 C   0  0  0  0  0  0  0  0  0  0  0  0
   12.3923    6.2184    0.0000 O   0  0  0  0  0  0  0  0  0  0  0  0
   12.5177    3.9849    0.0000 C   0  0  0  0  0  0  0  0  0  0  0  0
   13.6905    4.9202    0.0000 C   0  0  0  0  0  0  0  0  0  0  0  0
   15.0868    4.3722    0.0000 C   0  0  0  0  0  0  0  0  0  0  0  0
   16.2596    5.3074    0.0000 C   0  0  0  0  0  0  0  0  0  0  0  0
   17.6559    4.7594    0.0000 N   0  0  0  0  0  0  0  0  0  0  0  0
   18.8286    5.6946    0.0000 C   0  0  0  0  0  0  0  0  0  0  0  0
   18.6050    7.1779    0.0000 N   0  0  0  0  0  0  0  0  0  0  0  0
   20.2249    5.1466    0.0000 N   0  0  0  0  0  0  0  0  0  0  0  0
   13.3158    2.7149    0.0000 N   0  0  0  0  0  0  0  0  0  0  0  0
   13.8112    1.2990    0.0000 C   0  0  0  0  0  0  0  0  0  0  0  0
   15.2736    1.6328    0.0000 O   0  0  0  0  0  0  0  0  0  0  0  0
  2  1  1  6
  2  3  1  0
  3  4  1  0
  4  5  2  0
  4  6  1  0
  6  7  1  1
  7  8  1  0
  8  9  2  0
  9 10  1  0
 10 11  2  0
 11 12  1  0
 12 13  2  0
  6 14  1  0
 14 15  1  0
 15 16  2  0
 15 17  1  0
 17 18  1  0
 18 19  1  0
 19 20  1  0
 20 21  1  0
 21 22  1  0
 22 23  1  0
 23 24  2  0
 23 25  1  0
 25 26  1  0
 26 27  2  0
 27 28  1  0
 28 29  2  0
 29 30  1  0
 29 31  1  0
 31 32  2  0
 31 33  1  0
 33 34  1  0
 34 35  1  1
 35 36  1  0
 36 37  2  0
 37 38  1  0
 38 39  2  0
 39 40  1  0
 40 41  2  0
 41 42  1  0
 42 43  2  0
 43 44  1  0
 44 45  2  0
 34 46  1  0
 46 47  2  0
 46 48  1  0
 48 49  1  0
 49 50  1  6
 50 51  1  0
 49 52  1  0
 52 53  2  0
 52 54  1  0
 54 55  1  0
 55 56  1  6
 56 57  1  0
 57 58  1  0
 58 59  1  0
 58 60  2  0
 55 61  1  0
 61 62  2  0
 61 63  1  0
 63 64  1  0
 64 65  1  1
 65 66  1  0
 66 67  2  0
 67 68  1  0
 68 69  2  0
 69 70  1  0
 70 71  2  0
 71 72  1  0
 72 73  2  0
 73 74  1  0
 74 75  2  0
 64 76  1  0
 76 77  2  0
 76 78  1  0
 78 79  1  0
 79 80  1  6
 80 81  2  0
 81 82  1  0
 82 83  2  0
 83 84  1  0
 84 85  2  0
 79 86  1  0
 86 87  2  0
 86 88  1  0
 27 89  1  0
 89 90  2  0
 89 91  1  0
 91 92  1  0
 92 93  1  0
 93 94  1  1
 94 95  2  0
 94 96  1  0
 96 97  1  0
 97 98  1  6
 98 99  1  0
 99100  1  0
100101  1  0
 97102  1  0
102103  2  0
102104  1  0
104105  1  0
105106  1  1
106107  1  0
107108  1  0
108109  1  0
109110  1  0
110111  2  0
110112  1  0
105113  1  0
113114  2  0
113115  1  0
115116  1  0
116117  1  6
117118  1  0
118119  2  0
119120  1  0
120121  2  0
121122  1  0
121123  1  0
123124  2  0
116125  1  0
125126  2  0
125127  1  0
127128  1  0
128129  1  1
128130  1  0
130131  2  0
130132  1  0
132133  1  0
133134  1  1
134135  1  0
135136  1  0
136137  1  0
137138  1  0
133139  1  0
139140  1  0
139141  2  0
 93142  1  0
142143  1  0
143144  2  0
143145  1  0
145146  1  6
146147  1  0
147148  1  0
148149  1  0
149150  1  0
150151  2  0
150152  1  0
145153  1  0
153154  1  0
154155  2  0
154156  1  0
156157  1  1
157158  1  0
158159  1  0
159160  1  0
160161  1  0
161162  2  0
161163  1  0
156164  1  0
164165  1  0
165166  2  0
165  2  1  0
 13  8  1  0
 17 88  1  1
124118  1  0
 30 25  2  0
 45 36  1  0
 75 66  1  0
 85 80  1  0
 44 39  1  0
 74 69  1  0
M  END
>  <molecule_chembl_id>  (118) 
CHEMBL4870144

>  <canonical_smiles>  (118) 
C[C@@H]1NC(=O)[C@@H](Cc2ccccc2)NC(=O)[C@@H]2CCCCNC(=O)c3cc(cc(c3)C(=O)N[C@H](Cc3ccc4ccccc4c3)C(=O)N[C@@H](CO)C(=O)N[C@@H](CCC(N)=O)C(=O)N[C@H](Cc3ccc4ccccc4c3)C(=O)N[C@@H](c3ccccc3)C(=O)N2)C(=O)NC[C@@H](C(=O)N[C@@H](CCCN)C(=O)N[C@H](CCCNC(=N)N)C(=O)N[C@@H](Cc2ccc(F)cc2)C(=O)N[C@H](C)C(=O)N[C@@H](CCCCN)C(N)=O)NC(=O)[C@H](CCCNC(=N)N)NC(=O)[C@@H](CCCNC(=N)N)NC1=O

>  <pchembl_value_mean>  (118) 
5.77

>  <inchi>  (118) 
InChI=1S/C113H148FN31O21/c1-62(93(149)132-77(92(118)148)29-13-15-45-115)130-105(161)85(54-65-37-41-76(114)42-38-65)141-101(157)81(33-19-49-127-112(121)122)134-98(154)79(31-17-46-116)136-108(164)88-60-129-96(152)74-57-73-58-75(59-74)97(153)139-86(55-66-35-39-68-23-9-11-27-71(68)51-66)106(162)144-89(61-146)109(165)137-83(43-44-90(117)147)103(159)142-87(56-67-36-40-69-24-10-12-28-72(69)52-67)107(163)145-91(70-25-7-4-8-26-70)110(166)138-78(30-14-16-47-125-95(73)151)100(156)140-84(53-64-21-5-3-6-22-64)104(160)131-63(2)94(150)133-80(32-18-48-126-111(119)120)99(155)135-82(102(158)143-88)34-20-50-128-113(123)124/h3-12,21-28,35-42,51-52,57-59,62-63,77-89,91,146H,13-20,29-34,43-50,53-56,60-61,115-116H2,1-2H3,(H2,117,147)(H2,118,148)(H,125,151)(H,129,152)(H,130,161)(H,131,160)(H,132,149)(H,133,150)(H,134,154)(H,135,155)(H,136,164)(H,137,165)(H,138,166)(H,139,153)(H,140,156)(H,141,157)(H,142,159)(H,143,158)(H,144,162)(H,145,163)(H4,119,120,126)(H4,121,122,127)(H4,123,124,128)/t62-,63+,77+,78+,79+,80-,81-,82+,83+,84-,85+,86-,87-,88+,89+,91+/m1/s1

$$$$

     RDKit          2D

162170  0  0  0  0  0  0  0  0999 V2000
   -9.0880   -7.2356    0.0000 C   0  0  0  0  0  0  0  0  0  0  0  0
   -7.5922   -7.1235    0.0000 C   0  0  0  0  0  0  0  0  0  0  0  0
   -6.9414   -5.7720    0.0000 C   0  0  0  0  0  0  0  0  0  0  0  0
   -6.7473   -8.3628    0.0000 C   0  0  0  0  0  0  0  0  0  0  0  0
   -5.2514   -8.2507    0.0000 C   0  0  0  0  0  0  0  0  0  0  0  0
   -4.4065   -9.4901    0.0000 N   0  0  0  0  0  0  0  0  0  0  0  0
   -2.9107   -9.3780    0.0000 C   0  0  0  0  0  0  0  0  0  0  0  0
   -2.2598   -8.0266    0.0000 O   0  0  0  0  0  0  0  0  0  0  0  0
   -2.0657  -10.6174    0.0000 C   0  0  0  0  0  0  0  0  0  0  0  0
   -2.7165  -11.9688    0.0000 C   0  0  0  0  0  0  0  0  0  0  0  0
   -4.2123  -12.0809    0.0000 C   0  0  0  0  0  0  0  0  0  0  0  0
   -4.8631  -13.4324    0.0000 C   0  0  0  0  0  0  0  0  0  0  0  0
   -6.3589  -13.5445    0.0000 N   0  0  0  0  0  0  0  0  0  0  0  0
   -4.0182  -14.6717    0.0000 O   0  0  0  0  0  0  0  0  0  0  0  0
   -0.5699  -10.5053    0.0000 N   0  0  0  0  0  0  0  0  0  0  0  0
    0.0810   -9.1538    0.0000 C   0  0  0  0  0  0  0  0  0  0  0  0
   -0.7640   -7.9145    0.0000 O   0  0  0  0  0  0  0  0  0  0  0  0
    1.5768   -9.0417    0.0000 C   0  0  0  0  0  0  0  0  0  0  0  0
    2.2276   -7.6903    0.0000 N   0  0  0  0  0  0  0  0  0  0  0  0
    3.7234   -7.5782    0.0000 C   0  0  0  0  0  0  0  0  0  0  0  0
    4.5684   -8.8175    0.0000 O   0  0  0  0  0  0  0  0  0  0  0  0
    4.3742   -6.2267    0.0000 C   0  0  0  0  0  0  0  0  0  0  0  0
    3.1041   -5.4287    0.0000 C   0  0  0  0  0  0  0  0  0  0  0  0
    2.0435   -4.3680    0.0000 N   0  0  0  0  0  0  0  0  0  0  0  0
    1.2454   -3.0979    0.0000 C   0  0  0  0  0  0  0  0  0  0  0  0
    0.0916   -4.0564    0.0000 O   0  0  0  0  0  0  0  0  0  0  0  0
    0.7500   -1.2990    0.0000 C   0  0  0  0  0  0  0  0  0  0  0  0
    1.5000    0.0000    0.0000 C   0  0  0  0  0  0  0  0  0  0  0  0
    0.7500    1.2990    0.0000 C   0  0  0  0  0  0  0  0  0  0  0  0
   -0.7500    1.2990    0.0000 C   0  0  0  0  0  0  0  0  0  0  0  0
   -1.5000    0.0000    0.0000 C   0  0  0  0  0  0  0  0  0  0  0  0
   -0.7500   -1.2990    0.0000 C   0  0  0  0  0  0  0  0  0  0  0  0
   -2.7290    0.8600    0.0000 C   0  0  0  0  0  0  0  0  0  0  0  0
   -3.7259   -0.2608    0.0000 O   0  0  0  0  0  0  0  0  0  0  0  0
   -3.7264    1.9803    0.0000 N   0  0  0  0  0  0  0  0  0  0  0  0
   -4.4387    3.3004    0.0000 C   0  0  0  0  0  0  0  0  0  0  0  0
   -5.8326    2.7463    0.0000 C   0  0  0  0  0  0  0  0  0  0  0  0
   -7.0094    3.6763    0.0000 C   0  0  0  0  0  0  0  0  0  0  0  0
   -6.7924    5.1605    0.0000 C   0  0  0  0  0  0  0  0  0  0  0  0
   -7.9693    6.0906    0.0000 C   0  0  0  0  0  0  0  0  0  0  0  0
   -9.3632    5.5364    0.0000 C   0  0  0  0  0  0  0  0  0  0  0  0
  -10.5400    6.4664    0.0000 C   0  0  0  0  0  0  0  0  0  0  0  0
  -11.9339    5.9123    0.0000 C   0  0  0  0  0  0  0  0  0  0  0  0
  -12.1509    4.4280    0.0000 C   0  0  0  0  0  0  0  0  0  0  0  0
  -10.9741    3.4980    0.0000 C   0  0  0  0  0  0  0  0  0  0  0  0
   -9.5802    4.0522    0.0000 C   0  0  0  0  0  0  0  0  0  0  0  0
   -8.4033    3.1221    0.0000 C   0  0  0  0  0  0  0  0  0  0  0  0
   -4.8273    4.7492    0.0000 C   0  0  0  0  0  0  0  0  0  0  0  0
   -6.0364    4.8689    0.0000 O   0  0  0  0  0  0  0  0  0  0  0  0
   -4.8713    6.2486    0.0000 N   0  0  0  0  0  0  0  0  0  0  0  0
   -4.5684    7.7177    0.0000 C   0  0  0  0  0  0  0  0  0  0  0  0
   -5.9924    8.1891    0.0000 C   0  0  0  0  0  0  0  0  0  0  0  0
   -6.2961    9.6580    0.0000 O   0  0  0  0  0  0  0  0  0  0  0  0
   -3.9348    9.0773    0.0000 C   0  0  0  0  0  0  0  0  0  0  0  0
   -5.2117    9.8644    0.0000 O   0  0  0  0  0  0  0  0  0  0  0  0
   -3.0048   10.2542    0.0000 N   0  0  0  0  0  0  0  0  0  0  0  0
   -1.8284   11.1848    0.0000 C   0  0  0  0  0  0  0  0  0  0  0  0
   -2.6162   12.4613    0.0000 C   0  0  0  0  0  0  0  0  0  0  0  0
   -1.9046   13.7818    0.0000 C   0  0  0  0  0  0  0  0  0  0  0  0
   -2.6924   15.0582    0.0000 C   0  0  0  0  0  0  0  0  0  0  0  0
   -1.9809   16.3787    0.0000 N   0  0  0  0  0  0  0  0  0  0  0  0
   -4.1918   15.0142    0.0000 O   0  0  0  0  0  0  0  0  0  0  0  0
   -0.4691   11.8191    0.0000 C   0  0  0  0  0  0  0  0  0  0  0  0
   -0.9413   13.2428    0.0000 O   0  0  0  0  0  0  0  0  0  0  0  0
    0.9998   12.1228    0.0000 N   0  0  0  0  0  0  0  0  0  0  0  0
    2.4992   12.0796    0.0000 C   0  0  0  0  0  0  0  0  0  0  0  0
    2.7162   13.5638    0.0000 C   0  0  0  0  0  0  0  0  0  0  0  0
    4.1101   14.1180    0.0000 C   0  0  0  0  0  0  0  0  0  0  0  0
    5.2870   13.1879    0.0000 C   0  0  0  0  0  0  0  0  0  0  0  0
    6.6808   13.7421    0.0000 C   0  0  0  0  0  0  0  0  0  0  0  0
    6.8979   15.2263    0.0000 C   0  0  0  0  0  0  0  0  0  0  0  0
    8.2917   15.7805    0.0000 C   0  0  0  0  0  0  0  0  0  0  0  0
    8.5087   17.2647    0.0000 C   0  0  0  0  0  0  0  0  0  0  0  0
    7.3319   18.1948    0.0000 C   0  0  0  0  0  0  0  0  0  0  0  0
    5.9380   17.6406    0.0000 C   0  0  0  0  0  0  0  0  0  0  0  0
    5.7210   16.1564    0.0000 C   0  0  0  0  0  0  0  0  0  0  0  0
    4.3271   15.6022    0.0000 C   0  0  0  0  0  0  0  0  0  0  0  0
    3.9482   11.6917    0.0000 C   0  0  0  0  0  0  0  0  0  0  0  0
    4.6564   12.6790    0.0000 O   0  0  0  0  0  0  0  0  0  0  0  0
    5.2687   10.9802    0.0000 N   0  0  0  0  0  0  0  0  0  0  0  0
    6.3895    9.9833    0.0000 C   0  0  0  0  0  0  0  0  0  0  0  0
    7.5098   10.9808    0.0000 C   0  0  0  0  0  0  0  0  0  0  0  0
    8.9338   10.5093    0.0000 C   0  0  0  0  0  0  0  0  0  0  0  0
   10.0540   11.5068    0.0000 C   0  0  0  0  0  0  0  0  0  0  0  0
    9.7503   12.9757    0.0000 C   0  0  0  0  0  0  0  0  0  0  0  0
    8.3263   13.4472    0.0000 C   0  0  0  0  0  0  0  0  0  0  0  0
    7.2061   12.4497    0.0000 C   0  0  0  0  0  0  0  0  0  0  0  0
    7.2502    8.7548    0.0000 C   0  0  0  0  0  0  0  0  0  0  0  0
    8.5703    9.4670    0.0000 O   0  0  0  0  0  0  0  0  0  0  0  0
    7.8044    7.3609    0.0000 N   0  0  0  0  0  0  0  0  0  0  0  0
    8.7712    6.3391    0.0000 C   0  0  0  0  0  0  0  0  0  0  0  0
    7.2806    6.5070    0.0000 C   0  0  0  0  0  0  0  0  0  0  0  0
    5.7900    6.3391    0.0000 C   0  0  0  0  0  0  0  0  0  0  0  0
    4.3742    5.8437    0.0000 C   0  0  0  0  0  0  0  0  0  0  0  0
    3.1041    5.0456    0.0000 C   0  0  0  0  0  0  0  0  0  0  0  0
    2.0435    3.9849    0.0000 N   0  0  0  0  0  0  0  0  0  0  0  0
    1.2454    2.7149    0.0000 C   0  0  0  0  0  0  0  0  0  0  0  0
   -0.1060    3.3657    0.0000 O   0  0  0  0  0  0  0  0  0  0  0  0
   10.1870    5.8437    0.0000 C   0  0  0  0  0  0  0  0  0  0  0  0
   10.8378    7.1951    0.0000 O   0  0  0  0  0  0  0  0  0  0  0  0
   11.4571    5.0456    0.0000 N   0  0  0  0  0  0  0  0  0  0  0  0
   12.5177    3.9849    0.0000 C   0  0  0  0  0  0  0  0  0  0  0  0
   13.6905    4.9202    0.0000 C   0  0  0  0  0  0  0  0  0  0  0  0
   15.0868    4.3722    0.0000 C   0  0  0  0  0  0  0  0  0  0  0  0
   15.3104    2.8889    0.0000 C   0  0  0  0  0  0  0  0  0  0  0  0
   16.7067    2.3409    0.0000 C   0  0  0  0  0  0  0  0  0  0  0  0
   17.8794    3.2761    0.0000 C   0  0  0  0  0  0  0  0  0  0  0  0
   17.6559    4.7594    0.0000 C   0  0  0  0  0  0  0  0  0  0  0  0
   16.2596    5.3074    0.0000 C   0  0  0  0  0  0  0  0  0  0  0  0
   13.3158    2.7149    0.0000 C   0  0  0  0  0  0  0  0  0  0  0  0
   14.6672    3.3657    0.0000 O   0  0  0  0  0  0  0  0  0  0  0  0
   13.8112    1.2990    0.0000 N   0  0  0  0  0  0  0  0  0  0  0  0
   13.9792   -0.1915    0.0000 C   0  0  0  0  0  0  0  0  0  0  0  0
   15.4792   -0.1915    0.0000 C   0  0  0  0  0  0  0  0  0  0  0  0
   13.8112   -1.6821    0.0000 C   0  0  0  0  0  0  0  0  0  0  0  0
   15.2736   -2.0159    0.0000 O   0  0  0  0  0  0  0  0  0  0  0  0
   13.3158   -3.0979    0.0000 N   0  0  0  0  0  0  0  0  0  0  0  0
   12.5177   -4.3680    0.0000 C   0  0  0  0  0  0  0  0  0  0  0  0
   13.6905   -5.3032    0.0000 C   0  0  0  0  0  0  0  0  0  0  0  0
   13.4669   -6.7865    0.0000 C   0  0  0  0  0  0  0  0  0  0  0  0
   14.6397   -7.7217    0.0000 C   0  0  0  0  0  0  0  0  0  0  0  0
   14.4161   -9.2050    0.0000 N   0  0  0  0  0  0  0  0  0  0  0  0
   15.5889  -10.1402    0.0000 C   0  0  0  0  0  0  0  0  0  0  0  0
   16.9852   -9.5922    0.0000 N   0  0  0  0  0  0  0  0  0  0  0  0
   15.3653  -11.6235    0.0000 N   0  0  0  0  0  0  0  0  0  0  0  0
   11.4571   -5.4287    0.0000 C   0  0  0  0  0  0  0  0  0  0  0  0
   12.3923   -6.6014    0.0000 O   0  0  0  0  0  0  0  0  0  0  0  0
   10.1870   -6.2267    0.0000 N   0  0  0  0  0  0  0  0  0  0  0  0
    8.7712   -6.7221    0.0000 C   0  0  0  0  0  0  0  0  0  0  0  0
    9.1050   -8.1845    0.0000 C   0  0  0  0  0  0  0  0  0  0  0  0
    8.0054   -9.2048    0.0000 C   0  0  0  0  0  0  0  0  0  0  0  0
    8.3392  -10.6672    0.0000 C   0  0  0  0  0  0  0  0  0  0  0  0
    7.2396  -11.6874    0.0000 N   0  0  0  0  0  0  0  0  0  0  0  0
    7.5734  -13.1498    0.0000 C   0  0  0  0  0  0  0  0  0  0  0  0
    9.0067  -13.5920    0.0000 N   0  0  0  0  0  0  0  0  0  0  0  0
    6.4738  -14.1701    0.0000 N   0  0  0  0  0  0  0  0  0  0  0  0
    7.2806   -6.8901    0.0000 C   0  0  0  0  0  0  0  0  0  0  0  0
    7.2806   -8.3901    0.0000 O   0  0  0  0  0  0  0  0  0  0  0  0
    5.7900   -6.7221    0.0000 N   0  0  0  0  0  0  0  0  0  0  0  0
   -4.6006   -6.8993    0.0000 C   0  0  0  0  0  0  0  0  0  0  0  0
   -3.1048   -6.7872    0.0000 O   0  0  0  0  0  0  0  0  0  0  0  0
   -5.4456   -5.6599    0.0000 N   0  0  0  0  0  0  0  0  0  0  0  0
   -4.7948   -4.3085    0.0000 C   0  0  0  0  0  0  0  0  0  0  0  0
   -5.6398   -3.0691    0.0000 C   0  0  0  0  0  0  0  0  0  0  0  0
   -4.9889   -1.7177    0.0000 C   0  0  0  0  0  0  0  0  0  0  0  0
   -5.8339   -0.4783    0.0000 C   0  0  0  0  0  0  0  0  0  0  0  0
   -5.1831    0.8731    0.0000 N   0  0  0  0  0  0  0  0  0  0  0  0
   -6.0281    2.1125    0.0000 C   0  0  0  0  0  0  0  0  0  0  0  0
   -7.5239    2.0004    0.0000 N   0  0  0  0  0  0  0  0  0  0  0  0
   -5.3772    3.4640    0.0000 N   0  0  0  0  0  0  0  0  0  0  0  0
   -3.2990   -4.1964    0.0000 C   0  0  0  0  0  0  0  0  0  0  0  0
   -2.4540   -5.4357    0.0000 O   0  0  0  0  0  0  0  0  0  0  0  0
   -2.6481   -2.8449    0.0000 N   0  0  0  0  0  0  0  0  0  0  0  0
   -1.1523   -2.7328    0.0000 C   0  0  0  0  0  0  0  0  0  0  0  0
   -0.5015   -1.3814    0.0000 C   0  0  0  0  0  0  0  0  0  0  0  0
    0.9943   -1.2693    0.0000 C   0  0  0  0  0  0  0  0  0  0  0  0
    1.6451    0.0822    0.0000 C   0  0  0  0  0  0  0  0  0  0  0  0
    3.1409    0.1943    0.0000 C   0  0  0  0  0  0  0  0  0  0  0  0
    3.7917    1.5457    0.0000 N   0  0  0  0  0  0  0  0  0  0  0  0
   -0.3074   -3.9722    0.0000 C   0  0  0  0  0  0  0  0  0  0  0  0
   -0.9582   -5.3236    0.0000 N   0  0  0  0  0  0  0  0  0  0  0  0
    1.1169   -3.5015    0.0000 O   0  0  0  0  0  0  0  0  0  0  0  0
  1  2  1  0
  2  3  1  0
  2  4  1  0
  5  4  1  6
  5  6  1  0
  6  7  1  0
  7  8  2  0
  7  9  1  0
  9 10  1  1
 10 11  1  0
 11 12  1  0
 12 13  1  0
 12 14  2  0
  9 15  1  0
 15 16  1  0
 16 17  2  0
 16 18  1  0
 18 19  1  0
 19 20  1  0
 20 21  2  0
 22 20  1  6
 22 23  1  0
 23 24  1  0
 24 25  1  0
 25 26  2  0
 25 27  1  0
 27 28  1  0
 28 29  2  0
 29 30  1  0
 30 31  2  0
 31 32  1  0
 31 33  1  0
 33 34  2  0
 33 35  1  0
 35 36  1  0
 36 37  1  6
 37 38  1  0
 38 39  2  0
 39 40  1  0
 40 41  2  0
 41 42  1  0
 42 43  2  0
 43 44  1  0
 44 45  2  0
 45 46  1  0
 46 47  2  0
 36 48  1  0
 48 49  2  0
 48 50  1  0
 50 51  1  0
 51 52  1  1
 52 53  1  0
 51 54  1  0
 54 55  2  0
 54 56  1  0
 56 57  1  0
 57 58  1  1
 58 59  1  0
 59 60  1  0
 60 61  1  0
 60 62  2  0
 57 63  1  0
 63 64  2  0
 63 65  1  0
 65 66  1  0
 66 67  1  6
 67 68  1  0
 68 69  2  0
 69 70  1  0
 70 71  2  0
 71 72  1  0
 72 73  2  0
 73 74  1  0
 74 75  2  0
 75 76  1  0
 76 77  2  0
 66 78  1  0
 78 79  2  0
 78 80  1  0
 80 81  1  0
 81 82  1  1
 82 83  2  0
 83 84  1  0
 84 85  2  0
 85 86  1  0
 86 87  2  0
 81 88  1  0
 88 89  2  0
 88 90  1  0
 91 90  1  6
 91 92  1  0
 92 93  1  0
 93 94  1  0
 94 95  1  0
 95 96  1  0
 96 97  1  0
 97 98  2  0
 91 99  1  0
 99100  2  0
 99101  1  0
101102  1  0
102103  1  6
103104  1  0
104105  2  0
105106  1  0
106107  2  0
107108  1  0
108109  2  0
102110  1  0
110111  2  0
110112  1  0
112113  1  0
113114  1  1
113115  1  0
115116  2  0
115117  1  0
117118  1  0
118119  1  6
119120  1  0
120121  1  0
121122  1  0
122123  1  0
123124  2  0
123125  1  0
118126  1  0
126127  2  0
126128  1  0
128129  1  0
129130  1  1
130131  1  0
131132  1  0
132133  1  0
133134  1  0
134135  2  0
134136  1  0
129137  1  0
137138  2  0
137139  1  0
  5140  1  0
140141  2  0
140142  1  0
142143  1  0
143144  1  6
144145  1  0
145146  1  0
146147  1  0
147148  1  0
148149  2  0
148150  1  0
143151  1  0
151152  2  0
151153  1  0
153154  1  0
154155  1  1
155156  1  0
156157  1  0
157158  1  0
158159  1  0
154160  1  0
160161  1  0
160162  2  0
139 22  1  0
 32 27  2  0
 47 38  1  0
 77 68  1  0
 87 82  1  0
109104  1  0
 97 29  1  0
 46 41  1  0
 76 71  1  0
M  END
>  <molecule_chembl_id>  (119) 
CHEMBL4863413

>  <canonical_smiles>  (119) 
CC(C)C[C@@H](NC(=O)[C@H](CCC(N)=O)NC(=O)CNC(=O)[C@@H]1CNC(=O)c2cc3cc(c2)C(=O)N[C@H](Cc2ccc4ccccc4c2)C(=O)N[C@@H](CO)C(=O)N[C@@H](CCC(N)=O)C(=O)N[C@H](Cc2ccc4ccccc4c2)C(=O)N[C@@H](c2ccccc2)C(=O)N[C@@H](CCCCNC3=O)C(=O)N[C@H](Cc2ccccc2)C(=O)N[C@@H](C)C(=O)N[C@H](CCCNC(=N)N)C(=O)N[C@@H](CCCNC(=N)N)C(=O)N1)C(=O)N[C@H](CCCNC(=N)N)C(=O)N[C@@H](CCCCN)C(N)=O

>  <pchembl_value_mean>  (119) 
5.77

>  <inchi>  (119) 
InChI=1S/C109H147N31O22/c1-59(2)47-79(102(158)131-75(32-19-45-122-108(116)117)95(151)128-72(89(113)145)29-14-16-42-110)135-99(155)77(38-40-85(111)142)127-87(144)57-125-94(150)83-56-124-92(148)70-53-69-54-71(55-70)93(149)134-81(51-62-34-36-64-23-10-12-27-67(64)48-62)103(159)139-84(58-141)105(161)132-78(39-41-86(112)143)100(156)137-82(52-63-35-37-65-24-11-13-28-68(65)49-63)104(160)140-88(66-25-8-5-9-26-66)106(162)133-73(30-15-17-43-120-91(69)147)97(153)136-80(50-61-21-6-4-7-22-61)101(157)126-60(3)90(146)129-74(31-18-44-121-107(114)115)96(152)130-76(98(154)138-83)33-20-46-123-109(118)119/h4-13,21-28,34-37,48-49,53-55,59-60,72-84,88,141H,14-20,29-33,38-47,50-52,56-58,110H2,1-3H3,(H2,111,142)(H2,112,143)(H2,113,145)(H,120,147)(H,124,148)(H,125,150)(H,126,157)(H,127,144)(H,128,151)(H,129,146)(H,130,152)(H,131,158)(H,132,161)(H,133,162)(H,134,149)(H,135,155)(H,136,153)(H,137,156)(H,138,154)(H,139,159)(H,140,160)(H4,114,115,121)(H4,116,117,122)(H4,118,119,123)/t60-,72-,73-,74+,75+,76-,77-,78-,79+,80+,81+,82+,83-,84-,88-/m0/s1

$$$$

     RDKit          2D

154163  0  0  0  0  0  0  0  0999 V2000
   15.4792   -0.1915    0.0000 C   0  0  0  0  0  0  0  0  0  0  0  0
   13.9792   -0.1915    0.0000 C   0  0  0  0  0  0  0  0  0  0  0  0
   13.8112   -1.6821    0.0000 N   0  0  0  0  0  0  0  0  0  0  0  0
   13.3158   -3.0979    0.0000 C   0  0  0  0  0  0  0  0  0  0  0  0
   14.6672   -3.7487    0.0000 O   0  0  0  0  0  0  0  0  0  0  0  0
   12.5177   -4.3680    0.0000 C   0  0  0  0  0  0  0  0  0  0  0  0
   13.6905   -5.3032    0.0000 C   0  0  0  0  0  0  0  0  0  0  0  0
   13.4669   -6.7865    0.0000 C   0  0  0  0  0  0  0  0  0  0  0  0
   12.0706   -7.3345    0.0000 C   0  0  0  0  0  0  0  0  0  0  0  0
   11.8471   -8.8177    0.0000 C   0  0  0  0  0  0  0  0  0  0  0  0
   13.0198   -9.7530    0.0000 C   0  0  0  0  0  0  0  0  0  0  0  0
   14.4161   -9.2050    0.0000 C   0  0  0  0  0  0  0  0  0  0  0  0
   14.6397   -7.7217    0.0000 C   0  0  0  0  0  0  0  0  0  0  0  0
   11.4571   -5.4287    0.0000 N   0  0  0  0  0  0  0  0  0  0  0  0
   10.1870   -6.2267    0.0000 C   0  0  0  0  0  0  0  0  0  0  0  0
   10.8378   -7.5782    0.0000 O   0  0  0  0  0  0  0  0  0  0  0  0
    8.7712   -6.7221    0.0000 C   0  0  0  0  0  0  0  0  0  0  0  0
    7.2806   -6.8901    0.0000 C   0  0  0  0  0  0  0  0  0  0  0  0
    5.7900   -6.7221    0.0000 C   0  0  0  0  0  0  0  0  0  0  0  0
    4.3742   -6.2267    0.0000 C   0  0  0  0  0  0  0  0  0  0  0  0
    3.1041   -5.4287    0.0000 C   0  0  0  0  0  0  0  0  0  0  0  0
    2.0435   -4.3680    0.0000 N   0  0  0  0  0  0  0  0  0  0  0  0
    1.2454   -3.0979    0.0000 C   0  0  0  0  0  0  0  0  0  0  0  0
   -0.1060   -3.7487    0.0000 O   0  0  0  0  0  0  0  0  0  0  0  0
    0.7500   -1.2990    0.0000 C   0  0  0  0  0  0  0  0  0  0  0  0
    1.5000    0.0000    0.0000 C   0  0  0  0  0  0  0  0  0  0  0  0
    0.7500    1.2990    0.0000 C   0  0  0  0  0  0  0  0  0  0  0  0
   -0.7500    1.2990    0.0000 C   0  0  0  0  0  0  0  0  0  0  0  0
   -1.5000    0.0000    0.0000 C   0  0  0  0  0  0  0  0  0  0  0  0
   -0.7500   -1.2990    0.0000 C   0  0  0  0  0  0  0  0  0  0  0  0
   -2.3002   -1.3623    0.0000 C   0  0  0  0  0  0  0  0  0  0  0  0
   -3.7181    0.3198    0.0000 O   0  0  0  0  0  0  0  0  0  0  0  0
   -3.2158   -2.3372    0.0000 N   0  0  0  0  0  0  0  0  0  0  0  0
   -3.8819   -3.4970    0.0000 C   0  0  0  0  0  0  0  0  0  0  0  0
   -5.9040   -2.6302    0.0000 C   0  0  0  0  0  0  0  0  0  0  0  0
   -6.0815   -1.1408    0.0000 C   0  0  0  0  0  0  0  0  0  0  0  0
   -4.8803   -0.2423    0.0000 C   0  0  0  0  0  0  0  0  0  0  0  0
   -5.0578    1.2471    0.0000 C   0  0  0  0  0  0  0  0  0  0  0  0
   -6.4365    1.8381    0.0000 C   0  0  0  0  0  0  0  0  0  0  0  0
   -6.6140    3.3276    0.0000 C   0  0  0  0  0  0  0  0  0  0  0  0
   -7.9927    3.9186    0.0000 C   0  0  0  0  0  0  0  0  0  0  0  0
   -9.1939    3.0201    0.0000 C   0  0  0  0  0  0  0  0  0  0  0  0
   -9.0163    1.5307    0.0000 C   0  0  0  0  0  0  0  0  0  0  0  0
   -7.6377    0.9397    0.0000 C   0  0  0  0  0  0  0  0  0  0  0  0
   -7.4602   -0.5498    0.0000 C   0  0  0  0  0  0  0  0  0  0  0  0
   -4.2626   -4.7792    0.0000 C   0  0  0  0  0  0  0  0  0  0  0  0
   -6.4300   -4.4021    0.0000 O   0  0  0  0  0  0  0  0  0  0  0  0
   -4.3373   -6.1146    0.0000 N   0  0  0  0  0  0  0  0  0  0  0  0
   -4.1021   -7.4312    0.0000 C   0  0  0  0  0  0  0  0  0  0  0  0
   -6.2082   -8.0669    0.0000 C   0  0  0  0  0  0  0  0  0  0  0  0
   -7.3016   -7.0400    0.0000 O   0  0  0  0  0  0  0  0  0  0  0  0
   -3.5696   -8.6581    0.0000 C   0  0  0  0  0  0  0  0  0  0  0  0
   -5.4723   -9.7624    0.0000 O   0  0  0  0  0  0  0  0  0  0  0  0
   -2.7685   -9.7291    0.0000 N   0  0  0  0  0  0  0  0  0  0  0  0
   -1.7420  -10.5864    0.0000 C   0  0  0  0  0  0  0  0  0  0  0  0
   -2.9467  -12.4273    0.0000 C   0  0  0  0  0  0  0  0  0  0  0  0
   -4.4444  -12.3434    0.0000 C   0  0  0  0  0  0  0  0  0  0  0  0
   -5.2658  -13.5985    0.0000 N   0  0  0  0  0  0  0  0  0  0  0  0
   -5.1206  -11.0045    0.0000 O   0  0  0  0  0  0  0  0  0  0  0  0
   -0.5454  -11.1840    0.0000 C   0  0  0  0  0  0  0  0  0  0  0  0
   -1.2931  -13.2530    0.0000 O   0  0  0  0  0  0  0  0  0  0  0  0
    0.7567  -11.4895    0.0000 N   0  0  0  0  0  0  0  0  0  0  0  0
    2.0942  -11.4864    0.0000 C   0  0  0  0  0  0  0  0  0  0  0  0
    2.3546  -13.6710    0.0000 C   0  0  0  0  0  0  0  0  0  0  0  0
    1.1534  -14.5694    0.0000 C   0  0  0  0  0  0  0  0  0  0  0  0
   -0.2253  -13.9785    0.0000 C   0  0  0  0  0  0  0  0  0  0  0  0
   -1.4264  -14.8769    0.0000 C   0  0  0  0  0  0  0  0  0  0  0  0
   -1.2489  -16.3664    0.0000 C   0  0  0  0  0  0  0  0  0  0  0  0
   -2.4501  -17.2648    0.0000 C   0  0  0  0  0  0  0  0  0  0  0  0
   -2.2725  -18.7543    0.0000 C   0  0  0  0  0  0  0  0  0  0  0  0
   -0.8939  -19.3453    0.0000 C   0  0  0  0  0  0  0  0  0  0  0  0
    0.3073  -18.4468    0.0000 C   0  0  0  0  0  0  0  0  0  0  0  0
    0.1298  -16.9574    0.0000 C   0  0  0  0  0  0  0  0  0  0  0  0
    1.3309  -16.0589    0.0000 C   0  0  0  0  0  0  0  0  0  0  0  0
    3.3949  -11.1751    0.0000 C   0  0  0  0  0  0  0  0  0  0  0  0
    4.1520  -13.2407    0.0000 O   0  0  0  0  0  0  0  0  0  0  0  0
    4.5887  -10.5721    0.0000 N   0  0  0  0  0  0  0  0  0  0  0  0
    5.6114   -9.7101    0.0000 C   0  0  0  0  0  0  0  0  0  0  0  0
    7.2150  -11.2162    0.0000 C   0  0  0  0  0  0  0  0  0  0  0  0
    6.8724  -12.6765    0.0000 C   0  0  0  0  0  0  0  0  0  0  0  0
    7.9658  -13.7034    0.0000 C   0  0  0  0  0  0  0  0  0  0  0  0
    9.4018  -13.2699    0.0000 C   0  0  0  0  0  0  0  0  0  0  0  0
    9.7444  -11.8096    0.0000 C   0  0  0  0  0  0  0  0  0  0  0  0
    8.6510  -10.7827    0.0000 C   0  0  0  0  0  0  0  0  0  0  0  0
    6.4076   -8.6354    0.0000 C   0  0  0  0  0  0  0  0  0  0  0  0
    8.3154   -9.7311    0.0000 O   0  0  0  0  0  0  0  0  0  0  0  0
    8.1358   -8.0625    0.0000 N   0  0  0  0  0  0  0  0  0  0  0  0
    1.2454    2.7149    0.0000 C   0  0  0  0  0  0  0  0  0  0  0  0
    0.0946    3.1047    0.0000 O   0  0  0  0  0  0  0  0  0  0  0  0
    2.0435    3.9849    0.0000 N   0  0  0  0  0  0  0  0  0  0  0  0
    3.1041    5.0456    0.0000 C   0  0  0  0  0  0  0  0  0  0  0  0
    4.3742    5.8437    0.0000 C   0  0  0  0  0  0  0  0  0  0  0  0
    3.7234    7.1951    0.0000 C   0  0  0  0  0  0  0  0  0  0  0  0
    2.2276    7.3072    0.0000 O   0  0  0  0  0  0  0  0  0  0  0  0
    4.5684    8.4345    0.0000 N   0  0  0  0  0  0  0  0  0  0  0  0
    3.9175    9.7859    0.0000 C   0  0  0  0  0  0  0  0  0  0  0  0
    4.7625   11.0253    0.0000 C   0  0  0  0  0  0  0  0  0  0  0  0
    4.1117   12.3767    0.0000 N   0  0  0  0  0  0  0  0  0  0  0  0
    2.4217    9.8980    0.0000 C   0  0  0  0  0  0  0  0  0  0  0  0
    1.5768    8.6587    0.0000 O   0  0  0  0  0  0  0  0  0  0  0  0
    1.7709   11.2495    0.0000 N   0  0  0  0  0  0  0  0  0  0  0  0
    0.2751   11.3616    0.0000 C   0  0  0  0  0  0  0  0  0  0  0  0
   -0.3757   12.7130    0.0000 C   0  0  0  0  0  0  0  0  0  0  0  0
   -1.8715   12.8251    0.0000 C   0  0  0  0  0  0  0  0  0  0  0  0
   -2.5224   14.1766    0.0000 C   0  0  0  0  0  0  0  0  0  0  0  0
   -4.0182   14.2887    0.0000 N   0  0  0  0  0  0  0  0  0  0  0  0
   -4.6690   15.6401    0.0000 C   0  0  0  0  0  0  0  0  0  0  0  0
   -3.8240   16.8795    0.0000 N   0  0  0  0  0  0  0  0  0  0  0  0
   -6.1648   15.7522    0.0000 N   0  0  0  0  0  0  0  0  0  0  0  0
   -0.5699   10.1222    0.0000 C   0  0  0  0  0  0  0  0  0  0  0  0
    0.0810    8.7708    0.0000 O   0  0  0  0  0  0  0  0  0  0  0  0
   -2.0657   10.2343    0.0000 N   0  0  0  0  0  0  0  0  0  0  0  0
   -2.9107    8.9949    0.0000 C   0  0  0  0  0  0  0  0  0  0  0  0
   -4.4065    9.1070    0.0000 C   0  0  0  0  0  0  0  0  0  0  0  0
   -5.2514    7.8677    0.0000 C   0  0  0  0  0  0  0  0  0  0  0  0
   -6.7473    7.9798    0.0000 C   0  0  0  0  0  0  0  0  0  0  0  0
   -7.5922    6.7404    0.0000 C   0  0  0  0  0  0  0  0  0  0  0  0
   -6.9414    5.3890    0.0000 C   0  0  0  0  0  0  0  0  0  0  0  0
   -7.6761    4.7341    0.0000 F   0  0  0  0  0  0  0  0  0  0  0  0
   -5.4456    5.2769    0.0000 C   0  0  0  0  0  0  0  0  0  0  0  0
   -4.6006    6.5162    0.0000 C   0  0  0  0  0  0  0  0  0  0  0  0
   -2.2598    7.6435    0.0000 C   0  0  0  0  0  0  0  0  0  0  0  0
   -0.7640    7.5314    0.0000 O   0  0  0  0  0  0  0  0  0  0  0  0
   -3.1048    6.4041    0.0000 N   0  0  0  0  0  0  0  0  0  0  0  0
   -2.4540    5.0527    0.0000 C   0  0  0  0  0  0  0  0  0  0  0  0
   -3.2990    3.8133    0.0000 C   0  0  0  0  0  0  0  0  0  0  0  0
   -0.9582    4.9406    0.0000 C   0  0  0  0  0  0  0  0  0  0  0  0
   -0.1132    6.1799    0.0000 N   0  0  0  0  0  0  0  0  0  0  0  0
   -0.5684    3.7898    0.0000 O   0  0  0  0  0  0  0  0  0  0  0  0
    5.7900    6.3391    0.0000 N   0  0  0  0  0  0  0  0  0  0  0  0
    7.2806    6.5070    0.0000 C   0  0  0  0  0  0  0  0  0  0  0  0
    7.2806    8.0070    0.0000 O   0  0  0  0  0  0  0  0  0  0  0  0
    8.7712    6.3391    0.0000 C   0  0  0  0  0  0  0  0  0  0  0  0
    9.1050    7.8015    0.0000 C   0  0  0  0  0  0  0  0  0  0  0  0
   10.5383    8.2436    0.0000 C   0  0  0  0  0  0  0  0  0  0  0  0
   10.8721    9.7060    0.0000 C   0  0  0  0  0  0  0  0  0  0  0  0
   12.3055   10.1481    0.0000 N   0  0  0  0  0  0  0  0  0  0  0  0
   12.6392   11.6105    0.0000 C   0  0  0  0  0  0  0  0  0  0  0  0
   11.5397   12.6308    0.0000 N   0  0  0  0  0  0  0  0  0  0  0  0
   14.0726   12.0527    0.0000 N   0  0  0  0  0  0  0  0  0  0  0  0
   10.1870    5.8437    0.0000 N   0  0  0  0  0  0  0  0  0  0  0  0
   11.4571    5.0456    0.0000 C   0  0  0  0  0  0  0  0  0  0  0  0
   12.3923    6.2184    0.0000 O   0  0  0  0  0  0  0  0  0  0  0  0
   12.5177    3.9849    0.0000 C   0  0  0  0  0  0  0  0  0  0  0  0
   13.6905    4.9202    0.0000 C   0  0  0  0  0  0  0  0  0  0  0  0
   15.0868    4.3722    0.0000 C   0  0  0  0  0  0  0  0  0  0  0  0
   16.2596    5.3074    0.0000 C   0  0  0  0  0  0  0  0  0  0  0  0
   17.6559    4.7594    0.0000 N   0  0  0  0  0  0  0  0  0  0  0  0
   18.8286    5.6946    0.0000 C   0  0  0  0  0  0  0  0  0  0  0  0
   18.6050    7.1779    0.0000 N   0  0  0  0  0  0  0  0  0  0  0  0
   20.2249    5.1466    0.0000 N   0  0  0  0  0  0  0  0  0  0  0  0
   13.3158    2.7149    0.0000 N   0  0  0  0  0  0  0  0  0  0  0  0
   13.8112    1.2990    0.0000 C   0  0  0  0  0  0  0  0  0  0  0  0
   15.2736    1.6328    0.0000 O   0  0  0  0  0  0  0  0  0  0  0  0
  2  1  1  6
  2  3  1  0
  3  4  1  0
  4  5  2  0
  4  6  1  0
  6  7  1  1
  7  8  1  0
  8  9  2  0
  9 10  1  0
 10 11  2  0
 11 12  1  0
 12 13  2  0
  6 14  1  0
 14 15  1  0
 15 16  2  0
 15 17  1  0
 17 18  1  0
 18 19  1  0
 19 20  1  0
 20 21  1  0
 21 22  1  0
 22 23  1  0
 23 24  2  0
 23 25  1  0
 25 26  1  0
 26 27  2  0
 27 28  1  0
 28 29  2  0
 29 30  1  0
 29 31  1  0
 31 32  2  0
 31 33  1  0
 33 34  1  0
 34 35  1  1
 35 36  1  0
 36 37  2  0
 37 38  1  0
 38 39  2  0
 39 40  1  0
 40 41  2  0
 41 42  1  0
 42 43  2  0
 43 44  1  0
 44 45  2  0
 34 46  1  0
 46 47  2  0
 46 48  1  0
 48 49  1  0
 49 50  1  6
 50 51  1  0
 49 52  1  0
 52 53  2  0
 52 54  1  0
 54 55  1  0
 55 56  1  6
 56 57  1  0
 57 58  1  0
 57 59  2  0
 55 60  1  0
 60 61  2  0
 60 62  1  0
 62 63  1  0
 63 64  1  1
 64 65  1  0
 65 66  2  0
 66 67  1  0
 67 68  2  0
 68 69  1  0
 69 70  2  0
 70 71  1  0
 71 72  2  0
 72 73  1  0
 73 74  2  0
 63 75  1  0
 75 76  2  0
 75 77  1  0
 77 78  1  0
 78 79  1  6
 79 80  2  0
 80 81  1  0
 81 82  2  0
 82 83  1  0
 83 84  2  0
 78 85  1  0
 85 86  2  0
 85 87  1  0
 27 88  1  0
 88 89  2  0
 88 90  1  0
 90 91  1  0
 91 92  1  0
 92 93  1  1
 93 94  2  0
 93 95  1  0
 95 96  1  0
 96 97  1  6
 97 98  1  0
 96 99  1  0
 99100  2  0
 99101  1  0
101102  1  0
102103  1  1
103104  1  0
104105  1  0
105106  1  0
106107  1  0
107108  2  0
107109  1  0
102110  1  0
110111  2  0
110112  1  0
112113  1  0
113114  1  6
114115  1  0
115116  2  0
116117  1  0
117118  2  0
118119  1  0
118120  1  0
120121  2  0
113122  1  0
122123  2  0
122124  1  0
124125  1  0
125126  1  1
125127  1  0
127128  1  0
127129  2  0
 92130  1  0
130131  1  0
131132  2  0
131133  1  0
133134  1  6
134135  1  0
135136  1  0
136137  1  0
137138  1  0
138139  2  0
138140  1  0
133141  1  0
141142  1  0
142143  2  0
142144  1  0
144145  1  1
145146  1  0
146147  1  0
147148  1  0
148149  1  0
149150  2  0
149151  1  0
144152  1  0
152153  1  0
153154  2  0
153  2  1  0
 13  8  1  0
 17 87  1  1
121115  1  0
 30 25  2  0
 45 36  1  0
 74 65  1  0
 84 79  1  0
 44 39  1  0
 73 68  1  0
M  END
>  <molecule_chembl_id>  (120) 
CHEMBL4857968

>  <canonical_smiles>  (120) 
C[C@@H]1NC(=O)[C@@H](Cc2ccccc2)NC(=O)[C@@H]2CCCCNC(=O)c3cc(cc(c3)C(=O)N[C@H](Cc3ccc4ccccc4c3)C(=O)N[C@@H](CO)C(=O)N[C@@H](CC(N)=O)C(=O)N[C@H](Cc3ccc4ccccc4c3)C(=O)N[C@@H](c3ccccc3)C(=O)N2)C(=O)NC[C@@H](C(=O)N[C@@H](CN)C(=O)N[C@H](CCCNC(=N)N)C(=O)N[C@@H](Cc2ccc(F)cc2)C(=O)N[C@H](C)C(N)=O)NC(=O)[C@H](CCCNC(=N)N)NC(=O)[C@@H](CCCNC(=N)N)NC1=O

>  <pchembl_value_mean>  (120) 
5.77

>  <inchi>  (120) 
InChI=1S/C104H130FN29O20/c1-55(84(108)137)120-93(146)75(45-58-32-36-69(105)37-33-58)128-91(144)72(28-16-40-117-103(111)112)124-98(151)79(52-106)131-99(152)80-53-119-87(140)67-48-66-49-68(50-67)88(141)126-76(46-59-30-34-61-20-9-11-24-64(61)42-59)95(148)133-81(54-135)100(153)130-78(51-82(107)136)96(149)129-77(47-60-31-35-62-21-10-12-25-65(62)43-60)97(150)134-83(63-22-7-4-8-23-63)101(154)125-70(26-13-14-38-115-86(66)139)90(143)127-74(44-57-18-5-3-6-19-57)94(147)121-56(2)85(138)122-71(27-15-39-116-102(109)110)89(142)123-73(92(145)132-80)29-17-41-118-104(113)114/h3-12,18-25,30-37,42-43,48-50,55-56,70-81,83,135H,13-17,26-29,38-41,44-47,51-54,106H2,1-2H3,(H2,107,136)(H2,108,137)(H,115,139)(H,119,140)(H,120,146)(H,121,147)(H,122,138)(H,123,142)(H,124,151)(H,125,154)(H,126,141)(H,127,143)(H,128,144)(H,129,149)(H,130,153)(H,131,152)(H,132,145)(H,133,148)(H,134,150)(H4,109,110,116)(H4,111,112,117)(H4,113,114,118)/t55-,56+,70+,71-,72-,73+,74-,75+,76-,77-,78+,79+,80+,81+,83+/m1/s1

$$$$

     RDKit          2D

166175  0  0  0  0  0  0  0  0999 V2000
   15.4792   -0.1915    0.0000 C   0  0  0  0  0  0  0  0  0  0  0  0
   13.9792   -0.1915    0.0000 C   0  0  0  0  0  0  0  0  0  0  0  0
   13.8112   -1.6821    0.0000 N   0  0  0  0  0  0  0  0  0  0  0  0
   13.3158   -3.0979    0.0000 C   0  0  0  0  0  0  0  0  0  0  0  0
   14.6672   -3.7487    0.0000 O   0  0  0  0  0  0  0  0  0  0  0  0
   12.5177   -4.3680    0.0000 C   0  0  0  0  0  0  0  0  0  0  0  0
   13.6905   -5.3032    0.0000 C   0  0  0  0  0  0  0  0  0  0  0  0
   13.4669   -6.7865    0.0000 C   0  0  0  0  0  0  0  0  0  0  0  0
   12.0706   -7.3345    0.0000 C   0  0  0  0  0  0  0  0  0  0  0  0
   11.8471   -8.8177    0.0000 C   0  0  0  0  0  0  0  0  0  0  0  0
   13.0198   -9.7530    0.0000 C   0  0  0  0  0  0  0  0  0  0  0  0
   14.4161   -9.2050    0.0000 C   0  0  0  0  0  0  0  0  0  0  0  0
   14.6397   -7.7217    0.0000 C   0  0  0  0  0  0  0  0  0  0  0  0
   11.4571   -5.4287    0.0000 N   0  0  0  0  0  0  0  0  0  0  0  0
   10.1870   -6.2267    0.0000 C   0  0  0  0  0  0  0  0  0  0  0  0
   10.8378   -7.5782    0.0000 O   0  0  0  0  0  0  0  0  0  0  0  0
    8.7712   -6.7221    0.0000 C   0  0  0  0  0  0  0  0  0  0  0  0
    7.2806   -6.8901    0.0000 C   0  0  0  0  0  0  0  0  0  0  0  0
    5.7900   -6.7221    0.0000 C   0  0  0  0  0  0  0  0  0  0  0  0
    4.3742   -6.2267    0.0000 C   0  0  0  0  0  0  0  0  0  0  0  0
    3.1041   -5.4287    0.0000 C   0  0  0  0  0  0  0  0  0  0  0  0
    2.0435   -4.3680    0.0000 N   0  0  0  0  0  0  0  0  0  0  0  0
    1.2454   -3.0979    0.0000 C   0  0  0  0  0  0  0  0  0  0  0  0
   -0.1060   -3.7487    0.0000 O   0  0  0  0  0  0  0  0  0  0  0  0
    0.7500   -1.2990    0.0000 C   0  0  0  0  0  0  0  0  0  0  0  0
    1.5000    0.0000    0.0000 C   0  0  0  0  0  0  0  0  0  0  0  0
    0.7500    1.2990    0.0000 C   0  0  0  0  0  0  0  0  0  0  0  0
   -0.7500    1.2990    0.0000 C   0  0  0  0  0  0  0  0  0  0  0  0
   -1.5000    0.0000    0.0000 C   0  0  0  0  0  0  0  0  0  0  0  0
   -0.7500   -1.2990    0.0000 C   0  0  0  0  0  0  0  0  0  0  0  0
   -2.3002   -1.3623    0.0000 C   0  0  0  0  0  0  0  0  0  0  0  0
   -3.7181    0.3198    0.0000 O   0  0  0  0  0  0  0  0  0  0  0  0
   -3.2158   -2.3372    0.0000 N   0  0  0  0  0  0  0  0  0  0  0  0
   -3.8819   -3.4970    0.0000 C   0  0  0  0  0  0  0  0  0  0  0  0
   -5.9040   -2.6302    0.0000 C   0  0  0  0  0  0  0  0  0  0  0  0
   -6.0815   -1.1408    0.0000 C   0  0  0  0  0  0  0  0  0  0  0  0
   -4.8803   -0.2423    0.0000 C   0  0  0  0  0  0  0  0  0  0  0  0
   -5.0578    1.2471    0.0000 C   0  0  0  0  0  0  0  0  0  0  0  0
   -6.4365    1.8381    0.0000 C   0  0  0  0  0  0  0  0  0  0  0  0
   -6.6140    3.3276    0.0000 C   0  0  0  0  0  0  0  0  0  0  0  0
   -7.9927    3.9186    0.0000 C   0  0  0  0  0  0  0  0  0  0  0  0
   -9.1939    3.0201    0.0000 C   0  0  0  0  0  0  0  0  0  0  0  0
   -9.0163    1.5307    0.0000 C   0  0  0  0  0  0  0  0  0  0  0  0
   -7.6377    0.9397    0.0000 C   0  0  0  0  0  0  0  0  0  0  0  0
   -7.4602   -0.5498    0.0000 C   0  0  0  0  0  0  0  0  0  0  0  0
   -4.2626   -4.7792    0.0000 C   0  0  0  0  0  0  0  0  0  0  0  0
   -6.4300   -4.4021    0.0000 O   0  0  0  0  0  0  0  0  0  0  0  0
   -4.3373   -6.1146    0.0000 N   0  0  0  0  0  0  0  0  0  0  0  0
   -4.1021   -7.4312    0.0000 C   0  0  0  0  0  0  0  0  0  0  0  0
   -6.2082   -8.0669    0.0000 C   0  0  0  0  0  0  0  0  0  0  0  0
   -7.3016   -7.0400    0.0000 O   0  0  0  0  0  0  0  0  0  0  0  0
   -3.5696   -8.6581    0.0000 C   0  0  0  0  0  0  0  0  0  0  0  0
   -5.4723   -9.7624    0.0000 O   0  0  0  0  0  0  0  0  0  0  0  0
   -2.7685   -9.7291    0.0000 N   0  0  0  0  0  0  0  0  0  0  0  0
   -1.7420  -10.5864    0.0000 C   0  0  0  0  0  0  0  0  0  0  0  0
   -2.9467  -12.4273    0.0000 C   0  0  0  0  0  0  0  0  0  0  0  0
   -4.4444  -12.3434    0.0000 C   0  0  0  0  0  0  0  0  0  0  0  0
   -5.2658  -13.5985    0.0000 C   0  0  0  0  0  0  0  0  0  0  0  0
   -6.7634  -13.5147    0.0000 N   0  0  0  0  0  0  0  0  0  0  0  0
   -4.5895  -14.9375    0.0000 O   0  0  0  0  0  0  0  0  0  0  0  0
   -0.5454  -11.1840    0.0000 C   0  0  0  0  0  0  0  0  0  0  0  0
   -1.2931  -13.2530    0.0000 O   0  0  0  0  0  0  0  0  0  0  0  0
    0.7567  -11.4895    0.0000 N   0  0  0  0  0  0  0  0  0  0  0  0
    2.0942  -11.4864    0.0000 C   0  0  0  0  0  0  0  0  0  0  0  0
    2.3546  -13.6710    0.0000 C   0  0  0  0  0  0  0  0  0  0  0  0
    1.1534  -14.5694    0.0000 C   0  0  0  0  0  0  0  0  0  0  0  0
   -0.2253  -13.9785    0.0000 C   0  0  0  0  0  0  0  0  0  0  0  0
   -1.4264  -14.8769    0.0000 C   0  0  0  0  0  0  0  0  0  0  0  0
   -1.2489  -16.3664    0.0000 C   0  0  0  0  0  0  0  0  0  0  0  0
   -2.4501  -17.2648    0.0000 C   0  0  0  0  0  0  0  0  0  0  0  0
   -2.2725  -18.7543    0.0000 C   0  0  0  0  0  0  0  0  0  0  0  0
   -0.8939  -19.3453    0.0000 C   0  0  0  0  0  0  0  0  0  0  0  0
    0.3073  -18.4468    0.0000 C   0  0  0  0  0  0  0  0  0  0  0  0
    0.1298  -16.9574    0.0000 C   0  0  0  0  0  0  0  0  0  0  0  0
    1.3309  -16.0589    0.0000 C   0  0  0  0  0  0  0  0  0  0  0  0
    3.3949  -11.1751    0.0000 C   0  0  0  0  0  0  0  0  0  0  0  0
    4.1520  -13.2407    0.0000 O   0  0  0  0  0  0  0  0  0  0  0  0
    4.5887  -10.5721    0.0000 N   0  0  0  0  0  0  0  0  0  0  0  0
    5.6114   -9.7101    0.0000 C   0  0  0  0  0  0  0  0  0  0  0  0
    7.2150  -11.2162    0.0000 C   0  0  0  0  0  0  0  0  0  0  0  0
    6.8724  -12.6765    0.0000 C   0  0  0  0  0  0  0  0  0  0  0  0
    7.9658  -13.7034    0.0000 C   0  0  0  0  0  0  0  0  0  0  0  0
    9.4018  -13.2699    0.0000 C   0  0  0  0  0  0  0  0  0  0  0  0
    9.7444  -11.8096    0.0000 C   0  0  0  0  0  0  0  0  0  0  0  0
    8.6510  -10.7827    0.0000 C   0  0  0  0  0  0  0  0  0  0  0  0
    6.4076   -8.6354    0.0000 C   0  0  0  0  0  0  0  0  0  0  0  0
    8.3154   -9.7311    0.0000 O   0  0  0  0  0  0  0  0  0  0  0  0
    8.1358   -8.0625    0.0000 N   0  0  0  0  0  0  0  0  0  0  0  0
    1.2454    2.7149    0.0000 C   0  0  0  0  0  0  0  0  0  0  0  0
   -0.1060    3.3657    0.0000 O   0  0  0  0  0  0  0  0  0  0  0  0
    2.0435    3.9849    0.0000 N   0  0  0  0  0  0  0  0  0  0  0  0
    3.1041    5.0456    0.0000 C   0  0  0  0  0  0  0  0  0  0  0  0
    4.3742    5.8437    0.0000 C   0  0  0  0  0  0  0  0  0  0  0  0
    3.7234    7.1951    0.0000 C   0  0  0  0  0  0  0  0  0  0  0  0
    2.2276    7.3072    0.0000 O   0  0  0  0  0  0  0  0  0  0  0  0
    4.5684    8.4345    0.0000 N   0  0  0  0  0  0  0  0  0  0  0  0
    3.9175    9.7859    0.0000 C   0  0  0  0  0  0  0  0  0  0  0  0
    4.7625   11.0253    0.0000 C   0  0  0  0  0  0  0  0  0  0  0  0
    4.1117   12.3767    0.0000 C   0  0  0  0  0  0  0  0  0  0  0  0
    4.5628   13.2514    0.0000 N   0  0  0  0  0  0  0  0  0  0  0  0
    2.4217    9.8980    0.0000 C   0  0  0  0  0  0  0  0  0  0  0  0
    1.7709   11.2495    0.0000 C   0  0  0  0  0  0  0  0  0  0  0  0
    2.6159   12.4888    0.0000 O   0  0  0  0  0  0  0  0  0  0  0  0
    0.2751   11.3616    0.0000 N   0  0  0  0  0  0  0  0  0  0  0  0
   -0.3757   12.7130    0.0000 C   0  0  0  0  0  0  0  0  0  0  0  0
   -1.8715   12.8251    0.0000 C   0  0  0  0  0  0  0  0  0  0  0  0
   -2.5224   14.1766    0.0000 C   0  0  0  0  0  0  0  0  0  0  0  0
   -4.0182   14.2887    0.0000 C   0  0  0  0  0  0  0  0  0  0  0  0
   -4.6690   15.6401    0.0000 N   0  0  0  0  0  0  0  0  0  0  0  0
   -6.1648   15.7522    0.0000 C   0  0  0  0  0  0  0  0  0  0  0  0
   -7.0098   14.5129    0.0000 N   0  0  0  0  0  0  0  0  0  0  0  0
   -6.8156   17.1037    0.0000 N   0  0  0  0  0  0  0  0  0  0  0  0
    0.4693   13.9524    0.0000 C   0  0  0  0  0  0  0  0  0  0  0  0
    1.9651   13.8403    0.0000 O   0  0  0  0  0  0  0  0  0  0  0  0
   -0.1816   15.3038    0.0000 N   0  0  0  0  0  0  0  0  0  0  0  0
    0.6634   16.5432    0.0000 C   0  0  0  0  0  0  0  0  0  0  0  0
    0.0126   17.8946    0.0000 C   0  0  0  0  0  0  0  0  0  0  0  0
    0.8576   19.1340    0.0000 C   0  0  0  0  0  0  0  0  0  0  0  0
    2.3534   19.0219    0.0000 C   0  0  0  0  0  0  0  0  0  0  0  0
    3.1984   20.2613    0.0000 C   0  0  0  0  0  0  0  0  0  0  0  0
    2.5475   21.6127    0.0000 C   0  0  0  0  0  0  0  0  0  0  0  0
    3.3925   22.8521    0.0000 F   0  0  0  0  0  0  0  0  0  0  0  0
    1.0517   21.7248    0.0000 C   0  0  0  0  0  0  0  0  0  0  0  0
    0.2067   20.4855    0.0000 C   0  0  0  0  0  0  0  0  0  0  0  0
    2.1592   16.4311    0.0000 C   0  0  0  0  0  0  0  0  0  0  0  0
    2.8100   15.0796    0.0000 O   0  0  0  0  0  0  0  0  0  0  0  0
    3.0042   17.6705    0.0000 N   0  0  0  0  0  0  0  0  0  0  0  0
    4.5000   17.5584    0.0000 C   0  0  0  0  0  0  0  0  0  0  0  0
    5.3450   18.7977    0.0000 C   0  0  0  0  0  0  0  0  0  0  0  0
    5.1508   16.2069    0.0000 C   0  0  0  0  0  0  0  0  0  0  0  0
    4.3059   14.9675    0.0000 O   0  0  0  0  0  0  0  0  0  0  0  0
    6.6466   16.0948    0.0000 N   0  0  0  0  0  0  0  0  0  0  0  0
    7.2975   14.7434    0.0000 C   0  0  0  0  0  0  0  0  0  0  0  0
    8.7933   14.6313    0.0000 C   0  0  0  0  0  0  0  0  0  0  0  0
    9.4441   13.2798    0.0000 C   0  0  0  0  0  0  0  0  0  0  0  0
   10.9399   13.1677    0.0000 C   0  0  0  0  0  0  0  0  0  0  0  0
   11.5907   11.8163    0.0000 C   0  0  0  0  0  0  0  0  0  0  0  0
   12.3764   11.9508    0.0000 N   0  0  0  0  0  0  0  0  0  0  0  0
    6.4525   13.5040    0.0000 C   0  0  0  0  0  0  0  0  0  0  0  0
    7.1033   12.1525    0.0000 N   0  0  0  0  0  0  0  0  0  0  0  0
    5.4874   13.6966    0.0000 O   0  0  0  0  0  0  0  0  0  0  0  0
    5.7900    6.3391    0.0000 N   0  0  0  0  0  0  0  0  0  0  0  0
    7.2806    6.5070    0.0000 C   0  0  0  0  0  0  0  0  0  0  0  0
    7.2806    8.0070    0.0000 O   0  0  0  0  0  0  0  0  0  0  0  0
    8.7712    6.3391    0.0000 C   0  0  0  0  0  0  0  0  0  0  0  0
    9.1050    7.8015    0.0000 C   0  0  0  0  0  0  0  0  0  0  0  0
   10.5383    8.2436    0.0000 C   0  0  0  0  0  0  0  0  0  0  0  0
   10.8721    9.7060    0.0000 C   0  0  0  0  0  0  0  0  0  0  0  0
   12.3055   10.1481    0.0000 N   0  0  0  0  0  0  0  0  0  0  0  0
   12.6392   11.6105    0.0000 C   0  0  0  0  0  0  0  0  0  0  0  0
   11.5397   12.6308    0.0000 N   0  0  0  0  0  0  0  0  0  0  0  0
   14.0726   12.0527    0.0000 N   0  0  0  0  0  0  0  0  0  0  0  0
   10.1870    5.8437    0.0000 N   0  0  0  0  0  0  0  0  0  0  0  0
   11.4571    5.0456    0.0000 C   0  0  0  0  0  0  0  0  0  0  0  0
   12.3923    6.2184    0.0000 O   0  0  0  0  0  0  0  0  0  0  0  0
   12.5177    3.9849    0.0000 C   0  0  0  0  0  0  0  0  0  0  0  0
   13.6905    4.9202    0.0000 C   0  0  0  0  0  0  0  0  0  0  0  0
   15.0868    4.3722    0.0000 C   0  0  0  0  0  0  0  0  0  0  0  0
   16.2596    5.3074    0.0000 C   0  0  0  0  0  0  0  0  0  0  0  0
   17.6559    4.7594    0.0000 N   0  0  0  0  0  0  0  0  0  0  0  0
   18.8286    5.6946    0.0000 C   0  0  0  0  0  0  0  0  0  0  0  0
   18.6050    7.1779    0.0000 N   0  0  0  0  0  0  0  0  0  0  0  0
   20.2249    5.1466    0.0000 N   0  0  0  0  0  0  0  0  0  0  0  0
   13.3158    2.7149    0.0000 N   0  0  0  0  0  0  0  0  0  0  0  0
   13.8112    1.2990    0.0000 C   0  0  0  0  0  0  0  0  0  0  0  0
   15.2736    1.6328    0.0000 O   0  0  0  0  0  0  0  0  0  0  0  0
  2  1  1  6
  2  3  1  0
  3  4  1  0
  4  5  2  0
  4  6  1  0
  6  7  1  1
  7  8  1  0
  8  9  2  0
  9 10  1  0
 10 11  2  0
 11 12  1  0
 12 13  2  0
  6 14  1  0
 14 15  1  0
 15 16  2  0
 15 17  1  0
 17 18  1  0
 18 19  1  0
 19 20  1  0
 20 21  1  0
 21 22  1  0
 22 23  1  0
 23 24  2  0
 23 25  1  0
 25 26  1  0
 26 27  2  0
 27 28  1  0
 28 29  2  0
 29 30  1  0
 29 31  1  0
 31 32  2  0
 31 33  1  0
 33 34  1  0
 34 35  1  1
 35 36  1  0
 36 37  2  0
 37 38  1  0
 38 39  2  0
 39 40  1  0
 40 41  2  0
 41 42  1  0
 42 43  2  0
 43 44  1  0
 44 45  2  0
 34 46  1  0
 46 47  2  0
 46 48  1  0
 48 49  1  0
 49 50  1  6
 50 51  1  0
 49 52  1  0
 52 53  2  0
 52 54  1  0
 54 55  1  0
 55 56  1  6
 56 57  1  0
 57 58  1  0
 58 59  1  0
 58 60  2  0
 55 61  1  0
 61 62  2  0
 61 63  1  0
 63 64  1  0
 64 65  1  1
 65 66  1  0
 66 67  2  0
 67 68  1  0
 68 69  2  0
 69 70  1  0
 70 71  2  0
 71 72  1  0
 72 73  2  0
 73 74  1  0
 74 75  2  0
 64 76  1  0
 76 77  2  0
 76 78  1  0
 78 79  1  0
 79 80  1  6
 80 81  2  0
 81 82  1  0
 82 83  2  0
 83 84  1  0
 84 85  2  0
 79 86  1  0
 86 87  2  0
 86 88  1  0
 27 89  1  0
 89 90  2  0
 89 91  1  0
 91 92  1  0
 92 93  1  0
 93 94  1  1
 94 95  2  0
 94 96  1  0
 96 97  1  0
 97 98  1  6
 98 99  1  0
 99100  1  0
 97101  1  0
101102  1  0
102103  2  0
102104  1  0
104105  1  0
105106  1  6
106107  1  0
107108  1  0
108109  1  0
109110  1  0
110111  2  0
110112  1  0
105113  1  0
113114  2  0
113115  1  0
115116  1  0
116117  1  1
117118  1  0
118119  2  0
119120  1  0
120121  2  0
121122  1  0
121123  1  0
123124  2  0
116125  1  0
125126  2  0
125127  1  0
127128  1  0
128129  1  6
128130  1  0
130131  2  0
130132  1  0
132133  1  0
133134  1  1
134135  1  0
135136  1  0
136137  1  0
137138  1  0
133139  1  0
139140  1  0
139141  2  0
 93142  1  0
142143  1  0
143144  2  0
143145  1  0
145146  1  6
146147  1  0
147148  1  0
148149  1  0
149150  1  0
150151  2  0
150152  1  0
145153  1  0
153154  1  0
154155  2  0
154156  1  0
156157  1  1
157158  1  0
158159  1  0
159160  1  0
160161  1  0
161162  2  0
161163  1  0
156164  1  0
164165  1  0
165166  2  0
165  2  1  0
 13  8  1  0
 17 88  1  1
124118  1  0
 30 25  2  0
 45 36  1  0
 75 66  1  0
 85 80  1  0
 44 39  1  0
 74 69  1  0
M  END
>  <molecule_chembl_id>  (121) 
CHEMBL4872590

>  <canonical_smiles>  (121) 
C[C@@H]1NC(=O)[C@@H](Cc2ccccc2)NC(=O)[C@@H]2CCCCNC(=O)c3cc(cc(c3)C(=O)N[C@H](Cc3ccc4ccccc4c3)C(=O)N[C@@H](CO)C(=O)N[C@@H](CCC(N)=O)C(=O)N[C@H](Cc3ccc4ccccc4c3)C(=O)N[C@@H](c3ccccc3)C(=O)N2)C(=O)NC[C@@H](C(=O)N[C@@H](CCN)CC(=O)N[C@H](CCCNC(=N)N)C(=O)N[C@@H](Cc2ccc(F)cc2)C(=O)N[C@H](C)C(=O)N[C@@H](CCCCN)C(N)=O)NC(=O)[C@H](CCCNC(=N)N)NC(=O)[C@@H](CCCNC(=N)N)NC1=O

>  <pchembl_value_mean>  (121) 
5.77

>  <inchi>  (121) 
InChI=1S/C113H148FN31O21/c1-62(94(150)134-78(93(118)149)28-13-15-44-115)130-105(161)85(53-65-35-39-76(114)40-36-65)140-99(155)79(30-17-47-126-111(119)120)133-91(148)59-77(43-45-116)132-108(164)88-60-129-97(153)74-56-73-57-75(58-74)98(154)139-86(54-66-33-37-68-22-9-11-26-71(68)50-66)106(162)144-89(61-146)109(165)137-83(41-42-90(117)147)103(159)142-87(55-67-34-38-69-23-10-12-27-72(69)51-67)107(163)145-92(70-24-7-4-8-25-70)110(166)138-80(29-14-16-46-125-96(73)152)101(157)141-84(52-64-20-5-3-6-21-64)104(160)131-63(2)95(151)135-81(31-18-48-127-112(121)122)100(156)136-82(102(158)143-88)32-19-49-128-113(123)124/h3-12,20-27,33-40,50-51,56-58,62-63,77-89,92,146H,13-19,28-32,41-49,52-55,59-61,115-116H2,1-2H3,(H2,117,147)(H2,118,149)(H,125,152)(H,129,153)(H,130,161)(H,131,160)(H,132,164)(H,133,148)(H,134,150)(H,135,151)(H,136,156)(H,137,165)(H,138,166)(H,139,154)(H,140,155)(H,141,157)(H,142,159)(H,143,158)(H,144,162)(H,145,163)(H4,119,120,126)(H4,121,122,127)(H4,123,124,128)/t62-,63+,77+,78+,79-,80+,81-,82+,83+,84-,85+,86-,87-,88+,89+,92+/m1/s1

$$$$

     RDKit          2D

 30 33  0  0  0  0  0  0  0  0999 V2000
    3.3107   -8.3323    0.0000 C   0  0  0  0  0  0  0  0  0  0  0  0
    2.5607   -7.0333    0.0000 C   0  0  0  0  0  0  0  0  0  0  0  0
    3.3107   -5.7342    0.0000 C   0  0  0  0  0  0  0  0  0  0  0  0
    4.8107   -5.7342    0.0000 O   0  0  0  0  0  0  0  0  0  0  0  0
    2.5607   -4.4352    0.0000 N   0  0  0  0  0  0  0  0  0  0  0  0
    1.1118   -4.0470    0.0000 C   0  0  0  0  0  0  0  0  0  0  0  0
    1.5000   -2.5981    0.0000 C   0  0  0  0  0  0  0  0  0  0  0  0
    0.7500   -1.2990    0.0000 N   0  0  0  0  0  0  0  0  0  0  0  0
    1.5000    0.0000    0.0000 C   0  0  0  0  0  0  0  0  0  0  0  0
    0.7500    1.2990    0.0000 C   0  0  0  0  0  0  0  0  0  0  0  0
   -0.7500    1.2990    0.0000 N   0  0  0  0  0  0  0  0  0  0  0  0
   -1.5000    2.5981    0.0000 C   0  0  0  0  0  0  0  0  0  0  0  0
   -3.0000    2.5981    0.0000 O   0  0  0  0  0  0  0  0  0  0  0  0
   -0.7500    3.8971    0.0000 C   0  0  0  0  0  0  0  0  0  0  0  0
   -1.5000    5.1962    0.0000 N   0  0  0  0  0  0  0  0  0  0  0  0
   -0.7500    6.4952    0.0000 C   0  0  0  0  0  0  0  0  0  0  0  0
    0.7500    6.4952    0.0000 C   0  0  0  0  0  0  0  0  0  0  0  0
    1.5000    7.7942    0.0000 C   0  0  0  0  0  0  0  0  0  0  0  0
    3.0000    7.7942    0.0000 C   0  0  0  0  0  0  0  0  0  0  0  0
    3.2605    6.3170    0.0000 C   0  0  0  0  0  0  0  0  0  0  0  0
    4.4095    8.3073    0.0000 C   0  0  0  0  0  0  0  0  0  0  0  0
    3.2605    9.2714    0.0000 C   0  0  0  0  0  0  0  0  0  0  0  0
    0.7500    9.0933    0.0000 C   0  0  0  0  0  0  0  0  0  0  0  0
    1.5000   10.3923    0.0000 Cl  0  0  0  0  0  0  0  0  0  0  0  0
   -0.7500    9.0933    0.0000 C   0  0  0  0  0  0  0  0  0  0  0  0
   -1.5000    7.7942    0.0000 C   0  0  0  0  0  0  0  0  0  0  0  0
   -3.0000    7.7942    0.0000 O   0  0  0  0  0  0  0  0  0  0  0  0
   -1.5000    0.0000    0.0000 C   0  0  0  0  0  0  0  0  0  0  0  0
   -0.7500   -1.2990    0.0000 C   0  0  0  0  0  0  0  0  0  0  0  0
    2.9489   -2.9863    0.0000 C   0  0  0  0  0  0  0  0  0  0  0  0
  1  2  2  0
  2  3  1  0
  3  4  2  0
  3  5  1  0
  5  6  1  0
  6  7  1  0
  7  8  1  0
  8  9  1  0
  9 10  1  0
 10 11  1  0
 11 12  1  0
 12 13  2  0
 12 14  1  0
 14 15  1  0
 15 16  1  0
 16 17  2  0
 17 18  1  0
 18 19  1  0
 19 20  1  0
 19 21  1  0
 21 22  1  0
 18 23  2  0
 23 24  1  0
 23 25  1  0
 25 26  2  0
 26 27  1  0
 11 28  1  0
 28 29  1  0
  7 30  1  0
 30  5  1  0
 29  8  1  0
 26 16  1  0
 22 19  1  0
M  END
>  <molecule_chembl_id>  (122) 
CHEMBL4476113

>  <canonical_smiles>  (122) 
C=CC(=O)N1CC(N2CCN(C(=O)CNc3cc(C4(C)CC4)c(Cl)cc3O)CC2)C1

>  <pchembl_value_mean>  (122) 
5.785

>  <inchi>  (122) 
InChI=1S/C22H29ClN4O3/c1-3-20(29)27-13-15(14-27)25-6-8-26(9-7-25)21(30)12-24-18-10-16(22(2)4-5-22)17(23)11-19(18)28/h3,10-11,15,24,28H,1,4-9,12-14H2,2H3

$$$$

     RDKit          2D

 48 54  0  0  0  0  0  0  0  0999 V2000
   -3.3818  -11.6074    0.0000 C   0  0  0  0  0  0  0  0  0  0  0  0
   -2.1424  -10.7624    0.0000 C   0  0  0  0  0  0  0  0  0  0  0  0
   -0.7910  -11.4132    0.0000 C   0  0  0  0  0  0  0  0  0  0  0  0
    0.4484  -10.5682    0.0000 C   0  0  0  0  0  0  0  0  0  0  0  0
    1.7998  -11.2191    0.0000 N   0  0  0  0  0  0  0  0  0  0  0  0
    0.3363   -9.0724    0.0000 N   0  0  0  0  0  0  0  0  0  0  0  0
   -1.0152   -8.4216    0.0000 C   0  0  0  0  0  0  0  0  0  0  0  0
   -1.1273   -6.9258    0.0000 C   0  0  0  0  0  0  0  0  0  0  0  0
   -2.4787   -6.2750    0.0000 C   0  0  0  0  0  0  0  0  0  0  0  0
   -2.5908   -4.7792    0.0000 C   0  0  0  0  0  0  0  0  0  0  0  0
   -4.0307   -4.3423    0.0000 N   0  0  0  0  0  0  0  0  0  0  0  0
   -4.2543   -2.8590    0.0000 C   0  0  0  0  0  0  0  0  0  0  0  0
   -5.6506   -2.3110    0.0000 O   0  0  0  0  0  0  0  0  0  0  0  0
   -5.8742   -0.8278    0.0000 C   0  0  0  0  0  0  0  0  0  0  0  0
   -7.2705   -0.2797    0.0000 C   0  0  0  0  0  0  0  0  0  0  0  0
   -8.5346   -1.0873    0.0000 C   0  0  0  0  0  0  0  0  0  0  0  0
   -9.6932   -0.1346    0.0000 C   0  0  0  0  0  0  0  0  0  0  0  0
   -9.1452    1.2617    0.0000 C   0  0  0  0  0  0  0  0  0  0  0  0
   -7.6479    1.1720    0.0000 N   0  0  0  0  0  0  0  0  0  0  0  0
   -6.6952    2.3306    0.0000 C   0  0  0  0  0  0  0  0  0  0  0  0
   -3.0815   -1.9238    0.0000 N   0  0  0  0  0  0  0  0  0  0  0  0
   -1.6852   -2.4718    0.0000 C   0  0  0  0  0  0  0  0  0  0  0  0
   -1.3515   -3.9342    0.0000 C   0  0  0  0  0  0  0  0  0  0  0  0
   -0.0000   -4.5850    0.0000 C   0  0  0  0  0  0  0  0  0  0  0  0
    0.1121   -6.0808    0.0000 C   0  0  0  0  0  0  0  0  0  0  0  0
    1.4635   -6.7316    0.0000 Cl  0  0  0  0  0  0  0  0  0  0  0  0
    1.3515   -3.9342    0.0000 O   0  0  0  0  0  0  0  0  0  0  0  0
    1.6852   -2.4718    0.0000 C   0  0  0  0  0  0  0  0  0  0  0  0
    0.7500   -1.2990    0.0000 C   0  0  0  0  0  0  0  0  0  0  0  0
    1.5000    0.0000    0.0000 C   0  0  0  0  0  0  0  0  0  0  0  0
    0.7500    1.2990    0.0000 N   0  0  0  0  0  0  0  0  0  0  0  0
    1.5000    2.5981    0.0000 C   0  0  0  0  0  0  0  0  0  0  0  0
    0.7500    3.8971    0.0000 O   0  0  0  0  0  0  0  0  0  0  0  0
    3.0000    2.5981    0.0000 C   0  0  0  0  0  0  0  0  0  0  0  0
    4.5000    2.5981    0.0000 C   0  0  0  0  0  0  0  0  0  0  0  0
    6.0000    2.5981    0.0000 C   0  0  0  0  0  0  0  0  0  0  0  0
    6.8817    3.8116    0.0000 C   0  0  0  0  0  0  0  0  0  0  0  0
    8.3083    3.3481    0.0000 C   0  0  0  0  0  0  0  0  0  0  0  0
    8.3083    1.8481    0.0000 N   0  0  0  0  0  0  0  0  0  0  0  0
    6.8817    1.3846    0.0000 C   0  0  0  0  0  0  0  0  0  0  0  0
   -0.7500    1.2990    0.0000 C   0  0  0  0  0  0  0  0  0  0  0  0
   -1.5000    0.0000    0.0000 C   0  0  0  0  0  0  0  0  0  0  0  0
   -0.7500   -1.2990    0.0000 N   0  0  0  0  0  0  0  0  0  0  0  0
   -2.2545   -9.2666    0.0000 C   0  0  0  0  0  0  0  0  0  0  0  0
   -3.6060   -8.6157    0.0000 C   0  0  0  0  0  0  0  0  0  0  0  0
   -4.9574   -7.9649    0.0000 F   0  0  0  0  0  0  0  0  0  0  0  0
   -4.2568   -9.9672    0.0000 F   0  0  0  0  0  0  0  0  0  0  0  0
   -2.9552   -7.2643    0.0000 F   0  0  0  0  0  0  0  0  0  0  0  0
  1  2  1  0
  2  3  2  0
  3  4  1  0
  4  5  1  0
  4  6  2  0
  6  7  1  0
  7  8  1  0
  8  9  2  0
  9 10  1  0
 10 11  2  0
 11 12  1  0
 12 13  1  0
 13 14  1  0
 15 14  1  6
 15 16  1  0
 16 17  1  0
 17 18  1  0
 18 19  1  0
 19 20  1  0
 12 21  2  0
 21 22  1  0
 22 23  2  0
 23 24  1  0
 24 25  2  0
 25 26  1  0
 24 27  1  0
 27 28  1  0
 29 28  1  1
 29 30  1  0
 30 31  1  0
 31 32  1  0
 32 33  2  0
 32 34  1  0
 34 35  3  0
 35 36  1  0
 36 37  1  0
 37 38  1  0
 38 39  1  0
 39 40  1  0
 31 41  1  0
 41 42  1  0
 42 43  1  0
  7 44  2  0
 44 45  1  0
 45 46  1  0
 45 47  1  0
 45 48  1  0
 44  2  1  0
 25  8  1  0
 43 29  1  0
 23 10  1  0
 40 36  1  0
 19 15  1  0
 43 22  1  0
M  END
>  <molecule_chembl_id>  (123) 
CHEMBL5413213

>  <canonical_smiles>  (123) 
Cc1cc(N)nc(-c2cc3nc(OC[C@@H]4CCCN4C)nc4c3c(c2Cl)OC[C@@H]2CN(C(=O)C#CC3CCNC3)CCN42)c1C(F)(F)F

>  <pchembl_value_mean>  (123) 
5.8

>  <inchi>  (123) 
InChI=1S/C33H36ClF3N8O3/c1-18-12-24(38)41-29(27(18)33(35,36)37)22-13-23-26-30(28(22)34)47-17-21-15-44(25(46)6-5-19-7-8-39-14-19)10-11-45(21)31(26)42-32(40-23)48-16-20-4-3-9-43(20)2/h12-13,19-21,39H,3-4,7-11,14-17H2,1-2H3,(H2,38,41)/t19?,20-,21-/m0/s1

$$$$

     RDKit          2D

 49 56  0  0  0  0  0  0  0  0999 V2000
   -3.3818  -11.6074    0.0000 C   0  0  0  0  0  0  0  0  0  0  0  0
   -2.1424  -10.7624    0.0000 C   0  0  0  0  0  0  0  0  0  0  0  0
   -0.7910  -11.4132    0.0000 C   0  0  0  0  0  0  0  0  0  0  0  0
    0.4484  -10.5682    0.0000 C   0  0  0  0  0  0  0  0  0  0  0  0
    1.7998  -11.2191    0.0000 N   0  0  0  0  0  0  0  0  0  0  0  0
    0.3363   -9.0724    0.0000 N   0  0  0  0  0  0  0  0  0  0  0  0
   -1.0152   -8.4216    0.0000 C   0  0  0  0  0  0  0  0  0  0  0  0
   -1.1273   -6.9258    0.0000 C   0  0  0  0  0  0  0  0  0  0  0  0
   -2.4787   -6.2750    0.0000 C   0  0  0  0  0  0  0  0  0  0  0  0
   -2.5908   -4.7792    0.0000 C   0  0  0  0  0  0  0  0  0  0  0  0
   -4.0307   -4.3423    0.0000 N   0  0  0  0  0  0  0  0  0  0  0  0
   -4.2543   -2.8590    0.0000 C   0  0  0  0  0  0  0  0  0  0  0  0
   -5.6506   -2.3110    0.0000 O   0  0  0  0  0  0  0  0  0  0  0  0
   -5.8742   -0.8278    0.0000 C   0  0  0  0  0  0  0  0  0  0  0  0
   -7.2705   -0.2797    0.0000 C   0  0  0  0  0  0  0  0  0  0  0  0
   -8.5346   -1.0873    0.0000 C   0  0  0  0  0  0  0  0  0  0  0  0
   -9.6932   -0.1346    0.0000 C   0  0  0  0  0  0  0  0  0  0  0  0
   -9.1452    1.2617    0.0000 C   0  0  0  0  0  0  0  0  0  0  0  0
   -7.6479    1.1720    0.0000 N   0  0  0  0  0  0  0  0  0  0  0  0
   -6.6952    2.3306    0.0000 C   0  0  0  0  0  0  0  0  0  0  0  0
   -3.0815   -1.9238    0.0000 N   0  0  0  0  0  0  0  0  0  0  0  0
   -1.6852   -2.4718    0.0000 C   0  0  0  0  0  0  0  0  0  0  0  0
   -1.3515   -3.9342    0.0000 C   0  0  0  0  0  0  0  0  0  0  0  0
   -0.0000   -4.5850    0.0000 C   0  0  0  0  0  0  0  0  0  0  0  0
    0.1121   -6.0808    0.0000 C   0  0  0  0  0  0  0  0  0  0  0  0
    1.4635   -6.7316    0.0000 Cl  0  0  0  0  0  0  0  0  0  0  0  0
    1.3515   -3.9342    0.0000 O   0  0  0  0  0  0  0  0  0  0  0  0
    1.6852   -2.4718    0.0000 C   0  0  0  0  0  0  0  0  0  0  0  0
    0.7500   -1.2990    0.0000 C   0  0  0  0  0  0  0  0  0  0  0  0
    1.5000    0.0000    0.0000 C   0  0  0  0  0  0  0  0  0  0  0  0
    0.7500    1.2990    0.0000 N   0  0  0  0  0  0  0  0  0  0  0  0
    1.5000    2.5981    0.0000 C   0  0  0  0  0  0  0  0  0  0  0  0
    0.7500    3.8971    0.0000 O   0  0  0  0  0  0  0  0  0  0  0  0
    3.0000    2.5981    0.0000 C   0  0  0  0  0  0  0  0  0  0  0  0
    3.8817    1.3846    0.0000 C   0  0  0  0  0  0  0  0  0  0  0  0
    5.3083    1.8481    0.0000 C   0  0  0  0  0  0  0  0  0  0  0  0
    5.3083    3.3481    0.0000 C   0  0  0  0  0  0  0  0  0  0  0  0
    5.5429    4.8296    0.0000 C   0  0  0  0  0  0  0  0  0  0  0  0
    7.0244    4.5950    0.0000 N   0  0  0  0  0  0  0  0  0  0  0  0
    6.7898    3.1134    0.0000 C   0  0  0  0  0  0  0  0  0  0  0  0
    3.8817    3.8116    0.0000 O   0  0  0  0  0  0  0  0  0  0  0  0
   -0.7500    1.2990    0.0000 C   0  0  0  0  0  0  0  0  0  0  0  0
   -1.5000    0.0000    0.0000 C   0  0  0  0  0  0  0  0  0  0  0  0
   -0.7500   -1.2990    0.0000 N   0  0  0  0  0  0  0  0  0  0  0  0
   -2.2545   -9.2666    0.0000 C   0  0  0  0  0  0  0  0  0  0  0  0
   -3.6060   -8.6157    0.0000 C   0  0  0  0  0  0  0  0  0  0  0  0
   -4.9574   -7.9649    0.0000 F   0  0  0  0  0  0  0  0  0  0  0  0
   -2.9552   -7.2643    0.0000 F   0  0  0  0  0  0  0  0  0  0  0  0
   -4.2568   -9.9672    0.0000 F   0  0  0  0  0  0  0  0  0  0  0  0
  1  2  1  0
  2  3  2  0
  3  4  1  0
  4  5  1  0
  4  6  2  0
  6  7  1  0
  7  8  1  0
  8  9  2  0
  9 10  1  0
 10 11  2  0
 11 12  1  0
 12 13  1  0
 13 14  1  0
 15 14  1  6
 15 16  1  0
 16 17  1  0
 17 18  1  0
 18 19  1  0
 19 20  1  0
 12 21  2  0
 21 22  1  0
 22 23  2  0
 23 24  1  0
 24 25  2  0
 25 26  1  0
 24 27  1  0
 27 28  1  0
 29 28  1  1
 29 30  1  0
 30 31  1  0
 31 32  1  0
 32 33  2  0
 32 34  1  0
 34 35  1  0
 35 36  1  0
 36 37  1  0
 37 38  1  0
 38 39  1  0
 39 40  1  0
 37 41  1  0
 31 42  1  0
 42 43  1  0
 43 44  1  0
  7 45  2  0
 45 46  1  0
 46 47  1  0
 46 48  1  0
 46 49  1  0
 45  2  1  0
 25  8  1  0
 44 29  1  0
 23 10  1  0
 41 34  1  0
 19 15  1  0
 44 22  1  0
 40 37  1  0
M  END
>  <molecule_chembl_id>  (124) 
CHEMBL5433325

>  <canonical_smiles>  (124) 
Cc1cc(N)nc(-c2cc3nc(OC[C@@H]4CCCN4C)nc4c3c(c2Cl)OC[C@@H]2CN(C(=O)C3CCC5(CNC5)O3)CCN42)c1C(F)(F)F

>  <pchembl_value_mean>  (124) 
5.8

>  <inchi>  (124) 
InChI=1S/C33H38ClF3N8O4/c1-17-10-23(38)41-27(25(17)33(35,36)37)20-11-21-24-28(26(20)34)47-14-19-12-44(30(46)22-5-6-32(49-22)15-39-16-32)8-9-45(19)29(24)42-31(40-21)48-13-18-4-3-7-43(18)2/h10-11,18-19,22,39H,3-9,12-16H2,1-2H3,(H2,38,41)/t18-,19-,22?/m0/s1

$$$$

     RDKit          2D

 38 43  0  0  0  0  0  0  0  0999 V2000
    9.7500   -3.8971    0.0000 C   0  0  0  0  0  0  0  0  0  0  0  0
    8.2500   -3.8971    0.0000 C   0  0  0  0  0  0  0  0  0  0  0  0
    7.5000   -2.5981    0.0000 C   0  0  0  0  0  0  0  0  0  0  0  0
    8.2500   -1.2990    0.0000 O   0  0  0  0  0  0  0  0  0  0  0  0
    6.0000   -2.5981    0.0000 N   0  0  0  0  0  0  0  0  0  0  0  0
    5.2500   -3.8971    0.0000 C   0  0  0  0  0  0  0  0  0  0  0  0
    3.7500   -3.8971    0.0000 C   0  0  0  0  0  0  0  0  0  0  0  0
    3.0000   -2.5981    0.0000 N   0  0  0  0  0  0  0  0  0  0  0  0
    1.5000   -2.5981    0.0000 C   0  0  0  0  0  0  0  0  0  0  0  0
    0.7500   -3.8971    0.0000 N   0  0  0  0  0  0  0  0  0  0  0  0
   -0.7500   -3.8971    0.0000 C   0  0  0  0  0  0  0  0  0  0  0  0
   -1.5000   -5.1962    0.0000 O   0  0  0  0  0  0  0  0  0  0  0  0
   -3.0000   -5.1962    0.0000 C   0  0  0  0  0  0  0  0  0  0  0  0
   -3.7500   -6.4952    0.0000 C   0  0  0  0  0  0  0  0  0  0  0  0
   -3.1399   -7.8655    0.0000 C   0  0  0  0  0  0  0  0  0  0  0  0
   -4.2546   -8.8692    0.0000 C   0  0  0  0  0  0  0  0  0  0  0  0
   -5.5537   -8.1192    0.0000 C   0  0  0  0  0  0  0  0  0  0  0  0
   -5.2418   -6.6520    0.0000 N   0  0  0  0  0  0  0  0  0  0  0  0
   -6.2455   -5.5373    0.0000 C   0  0  0  0  0  0  0  0  0  0  0  0
   -1.5000   -2.5981    0.0000 N   0  0  0  0  0  0  0  0  0  0  0  0
   -0.7500   -1.2990    0.0000 C   0  0  0  0  0  0  0  0  0  0  0  0
    0.7500   -1.2990    0.0000 C   0  0  0  0  0  0  0  0  0  0  0  0
    1.5000    0.0000    0.0000 C   0  0  0  0  0  0  0  0  0  0  0  0
    0.7500    1.2990    0.0000 C   0  0  0  0  0  0  0  0  0  0  0  0
   -0.7500    1.2990    0.0000 N   0  0  0  0  0  0  0  0  0  0  0  0
   -1.5000    2.5981    0.0000 C   0  0  0  0  0  0  0  0  0  0  0  0
   -3.0000    2.5981    0.0000 C   0  0  0  0  0  0  0  0  0  0  0  0
   -3.7500    1.2990    0.0000 C   0  0  0  0  0  0  0  0  0  0  0  0
   -3.7500    3.8971    0.0000 C   0  0  0  0  0  0  0  0  0  0  0  0
   -3.0000    5.1962    0.0000 C   0  0  0  0  0  0  0  0  0  0  0  0
   -1.5000    5.1962    0.0000 C   0  0  0  0  0  0  0  0  0  0  0  0
   -0.4963    6.3109    0.0000 N   0  0  0  0  0  0  0  0  0  0  0  0
    0.8740    5.7008    0.0000 N   0  0  0  0  0  0  0  0  0  0  0  0
    0.7172    4.2090    0.0000 C   0  0  0  0  0  0  0  0  0  0  0  0
   -0.7500    3.8971    0.0000 C   0  0  0  0  0  0  0  0  0  0  0  0
   -1.5000    0.0000    0.0000 C   0  0  0  0  0  0  0  0  0  0  0  0
    3.7500   -1.2990    0.0000 C   0  0  0  0  0  0  0  0  0  0  0  0
    5.2500   -1.2990    0.0000 C   0  0  0  0  0  0  0  0  0  0  0  0
  1  2  2  0
  2  3  1  0
  3  4  2  0
  3  5  1  0
  5  6  1  0
  6  7  1  0
  7  8  1  0
  8  9  1  0
  9 10  2  0
 10 11  1  0
 11 12  1  0
 12 13  1  0
 14 13  1  6
 14 15  1  0
 15 16  1  0
 16 17  1  0
 17 18  1  0
 18 19  1  0
 11 20  2  0
 20 21  1  0
 21 22  2  0
 22 23  1  0
 23 24  1  0
 24 25  1  0
 25 26  1  0
 26 27  2  0
 27 28  1  0
 27 29  1  0
 29 30  2  0
 30 31  1  0
 31 32  1  0
 32 33  1  0
 33 34  2  0
 34 35  1  0
 25 36  1  0
  8 37  1  0
 37 38  1  0
 38  5  1  0
 22  9  1  0
 35 26  1  0
 18 14  1  0
 36 21  1  0
 35 31  2  0
M  END
>  <molecule_chembl_id>  (125) 
CHEMBL4637434

>  <canonical_smiles>  (125) 
C=CC(=O)N1CCN(c2nc(OC[C@@H]3CCCN3C)nc3c2CCN(c2c(C)ccc4[nH]ncc24)C3)CC1

>  <pchembl_value_mean>  (125) 
5.82

>  <inchi>  (125) 
InChI=1S/C28H36N8O2/c1-4-25(37)34-12-14-35(15-13-34)27-21-9-11-36(26-19(2)7-8-23-22(26)16-29-32-23)17-24(21)30-28(31-27)38-18-20-6-5-10-33(20)3/h4,7-8,16,20H,1,5-6,9-15,17-18H2,2-3H3,(H,29,32)/t20-/m0/s1

$$$$

     RDKit          2D

 38 42  0  0  0  0  0  0  0  0999 V2000
    9.7500   -3.8971    0.0000 C   0  0  0  0  0  0  0  0  0  0  0  0
    8.2500   -3.8971    0.0000 C   0  0  0  0  0  0  0  0  0  0  0  0
    7.5000   -2.5981    0.0000 C   0  0  0  0  0  0  0  0  0  0  0  0
    8.2500   -1.2990    0.0000 O   0  0  0  0  0  0  0  0  0  0  0  0
    6.0000   -2.5981    0.0000 N   0  0  0  0  0  0  0  0  0  0  0  0
    5.2500   -3.8971    0.0000 C   0  0  0  0  0  0  0  0  0  0  0  0
    3.7500   -3.8971    0.0000 C   0  0  0  0  0  0  0  0  0  0  0  0
    3.0000   -2.5981    0.0000 N   0  0  0  0  0  0  0  0  0  0  0  0
    1.5000   -2.5981    0.0000 C   0  0  0  0  0  0  0  0  0  0  0  0
    0.7500   -3.8971    0.0000 N   0  0  0  0  0  0  0  0  0  0  0  0
   -0.7500   -3.8971    0.0000 C   0  0  0  0  0  0  0  0  0  0  0  0
   -1.5000   -5.1962    0.0000 O   0  0  0  0  0  0  0  0  0  0  0  0
   -3.0000   -5.1962    0.0000 C   0  0  0  0  0  0  0  0  0  0  0  0
   -3.7500   -6.4952    0.0000 C   0  0  0  0  0  0  0  0  0  0  0  0
   -5.2500   -6.4952    0.0000 C   0  0  0  0  0  0  0  0  0  0  0  0
   -6.0000   -7.7942    0.0000 N   0  0  0  0  0  0  0  0  0  0  0  0
   -7.5000   -7.7942    0.0000 C   0  0  0  0  0  0  0  0  0  0  0  0
   -5.2500   -9.0933    0.0000 C   0  0  0  0  0  0  0  0  0  0  0  0
   -1.5000   -2.5981    0.0000 N   0  0  0  0  0  0  0  0  0  0  0  0
   -0.7500   -1.2990    0.0000 C   0  0  0  0  0  0  0  0  0  0  0  0
    0.7500   -1.2990    0.0000 C   0  0  0  0  0  0  0  0  0  0  0  0
    1.5000    0.0000    0.0000 C   0  0  0  0  0  0  0  0  0  0  0  0
    0.7500    1.2990    0.0000 C   0  0  0  0  0  0  0  0  0  0  0  0
   -0.7500    1.2990    0.0000 N   0  0  0  0  0  0  0  0  0  0  0  0
   -1.5000    2.5981    0.0000 C   0  0  0  0  0  0  0  0  0  0  0  0
   -3.0000    2.5981    0.0000 C   0  0  0  0  0  0  0  0  0  0  0  0
   -3.7500    3.8971    0.0000 C   0  0  0  0  0  0  0  0  0  0  0  0
   -5.2500    3.8971    0.0000 O   0  0  0  0  0  0  0  0  0  0  0  0
   -3.0000    5.1962    0.0000 C   0  0  0  0  0  0  0  0  0  0  0  0
   -1.5000    5.1962    0.0000 C   0  0  0  0  0  0  0  0  0  0  0  0
   -0.7500    6.4952    0.0000 C   0  0  0  0  0  0  0  0  0  0  0  0
    0.7500    6.4952    0.0000 C   0  0  0  0  0  0  0  0  0  0  0  0
    1.5000    5.1962    0.0000 C   0  0  0  0  0  0  0  0  0  0  0  0
    0.7500    3.8971    0.0000 C   0  0  0  0  0  0  0  0  0  0  0  0
   -0.7500    3.8971    0.0000 C   0  0  0  0  0  0  0  0  0  0  0  0
   -1.5000    0.0000    0.0000 C   0  0  0  0  0  0  0  0  0  0  0  0
    3.7500   -1.2990    0.0000 C   0  0  0  0  0  0  0  0  0  0  0  0
    5.2500   -1.2990    0.0000 C   0  0  0  0  0  0  0  0  0  0  0  0
  1  2  2  0
  2  3  1  0
  3  4  2  0
  3  5  1  0
  5  6  1  0
  6  7  1  0
  7  8  1  0
  8  9  1  0
  9 10  2  0
 10 11  1  0
 11 12  1  0
 12 13  1  0
 13 14  1  0
 14 15  1  0
 15 16  1  0
 16 17  1  0
 16 18  1  0
 11 19  2  0
 19 20  1  0
 20 21  2  0
 21 22  1  0
 22 23  1  0
 23 24  1  0
 24 25  1  0
 25 26  2  0
 26 27  1  0
 27 28  1  0
 27 29  2  0
 29 30  1  0
 30 31  2  0
 31 32  1  0
 32 33  2  0
 33 34  1  0
 34 35  2  0
 24 36  1  0
  8 37  1  0
 37 38  1  0
 38  5  1  0
 21  9  1  0
 35 25  1  0
 36 20  1  0
 35 30  1  0
M  END
>  <molecule_chembl_id>  (126) 
CHEMBL4525173

>  <canonical_smiles>  (126) 
C=CC(=O)N1CCN(c2nc(OCCCN(C)C)nc3c2CCN(c2cc(O)cc4ccccc24)C3)CC1

>  <pchembl_value_mean>  (126) 
5.82

>  <inchi>  (126) 
InChI=1S/C29H36N6O3/c1-4-27(37)33-13-15-34(16-14-33)28-24-10-12-35(26-19-22(36)18-21-8-5-6-9-23(21)26)20-25(24)30-29(31-28)38-17-7-11-32(2)3/h4-6,8-9,18-19,36H,1,7,10-17,20H2,2-3H3

$$$$

     RDKit          2D

 31 34  0  0  0  0  0  0  0  0999 V2000
  -12.9291   -5.8905    0.0000 C   0  0  0  0  0  0  0  0  0  0  0  0
  -11.4373   -6.0472    0.0000 C   0  0  0  0  0  0  0  0  0  0  0  0
  -10.5556   -4.8337    0.0000 C   0  0  0  0  0  0  0  0  0  0  0  0
  -11.1657   -3.4634    0.0000 O   0  0  0  0  0  0  0  0  0  0  0  0
   -9.0638   -4.9905    0.0000 N   0  0  0  0  0  0  0  0  0  0  0  0
   -8.1821   -3.7770    0.0000 C   0  0  0  0  0  0  0  0  0  0  0  0
   -8.7923   -2.4067    0.0000 C   0  0  0  0  0  0  0  0  0  0  0  0
   -7.9106   -1.1931    0.0000 C   0  0  0  0  0  0  0  0  0  0  0  0
   -6.4188   -1.3499    0.0000 C   0  0  0  0  0  0  0  0  0  0  0  0
   -5.5371   -0.1364    0.0000 N   0  0  0  0  0  0  0  0  0  0  0  0
   -6.0006    1.2902    0.0000 N   0  0  0  0  0  0  0  0  0  0  0  0
   -4.7871    2.1718    0.0000 C   0  0  0  0  0  0  0  0  0  0  0  0
   -4.7871    3.6718    0.0000 C   0  0  0  0  0  0  0  0  0  0  0  0
   -6.0862    4.4218    0.0000 C   0  0  0  0  0  0  0  0  0  0  0  0
   -3.4881    4.4218    0.0000 C   0  0  0  0  0  0  0  0  0  0  0  0
   -3.5736    1.2902    0.0000 C   0  0  0  0  0  0  0  0  0  0  0  0
   -2.1470    1.7537    0.0000 C   0  0  0  0  0  0  0  0  0  0  0  0
   -1.0323    0.7500    0.0000 C   0  0  0  0  0  0  0  0  0  0  0  0
   -1.3442   -0.7172    0.0000 C   0  0  0  0  0  0  0  0  0  0  0  0
    0.3943    1.2135    0.0000 C   0  0  0  0  0  0  0  0  0  0  0  0
    0.7062    2.6807    0.0000 C   0  0  0  0  0  0  0  0  0  0  0  0
   -0.4086    3.6844    0.0000 C   0  0  0  0  0  0  0  0  0  0  0  0
   -0.4086    5.1844    0.0000 N   0  0  0  0  0  0  0  0  0  0  0  0
   -1.8351    5.6480    0.0000 N   0  0  0  0  0  0  0  0  0  0  0  0
   -2.7168    4.4344    0.0000 C   0  0  0  0  0  0  0  0  0  0  0  0
   -1.8351    3.2209    0.0000 C   0  0  0  0  0  0  0  0  0  0  0  0
   -4.0371   -0.1364    0.0000 C   0  0  0  0  0  0  0  0  0  0  0  0
   -3.1554   -1.3499    0.0000 C   0  0  0  0  0  0  0  0  0  0  0  0
   -5.8087   -2.7203    0.0000 C   0  0  0  0  0  0  0  0  0  0  0  0
   -4.3169   -2.8771    0.0000 C   0  0  0  0  0  0  0  0  0  0  0  0
   -6.6904   -3.9338    0.0000 C   0  0  0  0  0  0  0  0  0  0  0  0
  1  2  2  0
  2  3  1  0
  3  4  2  0
  3  5  1  0
  5  6  1  0
  6  7  2  0
  7  8  1  0
  8  9  2  0
  9 10  1  0
 10 11  1  0
 11 12  2  0
 12 13  1  0
 13 14  1  0
 13 15  1  0
 12 16  1  0
 16 17  1  0
 17 18  2  0
 18 19  1  0
 18 20  1  0
 20 21  2  0
 21 22  1  0
 22 23  1  0
 23 24  1  0
 24 25  2  0
 25 26  1  0
 16 27  2  0
 27 28  1  0
  9 29  1  0
 29 30  1  0
 29 31  2  0
 31  6  1  0
 27 10  1  0
 26 17  1  0
 26 22  2  0
M  END
>  <molecule_chembl_id>  (127) 
CHEMBL5269632

>  <canonical_smiles>  (127) 
C=CC(=O)Nc1ccc(-n2nc(C(C)C)c(-c3c(C)ccc4[nH]ncc34)c2C)c(C)c1

>  <pchembl_value_mean>  (127) 
5.82

>  <inchi>  (127) 
InChI=1S/C25H27N5O/c1-7-22(31)27-18-9-11-21(16(5)12-18)30-17(6)24(25(29-30)14(2)3)23-15(4)8-10-20-19(23)13-26-28-20/h7-14H,1H2,2-6H3,(H,26,28)(H,27,31)

$$$$

     RDKit          2D

134138  0  0  0  0  0  0  0  0999 V2000
    7.4592   15.3348    0.0000 C   0  0  0  0  0  0  0  0  0  0  0  0
    6.1077   14.6840    0.0000 C   0  0  0  0  0  0  0  0  0  0  0  0
    5.9956   13.1882    0.0000 C   0  0  0  0  0  0  0  0  0  0  0  0
    7.2350   12.3432    0.0000 C   0  0  0  0  0  0  0  0  0  0  0  0
    4.6442   12.5373    0.0000 C   0  0  0  0  0  0  0  0  0  0  0  0
    5.1713   11.1330    0.0000 N   0  0  0  0  0  0  0  0  0  0  0  0
    5.4391    9.6571    0.0000 C   0  0  0  0  0  0  0  0  0  0  0  0
    6.9331    9.7915    0.0000 O   0  0  0  0  0  0  0  0  0  0  0  0
    5.4391    8.1571    0.0000 C   0  0  0  0  0  0  0  0  0  0  0  0
    6.9331    8.0226    0.0000 C   0  0  0  0  0  0  0  0  0  0  0  0
    7.5636    6.6616    0.0000 C   0  0  0  0  0  0  0  0  0  0  0  0
    6.7002    5.4350    0.0000 C   0  0  0  0  0  0  0  0  0  0  0  0
    7.3307    4.0740    0.0000 C   0  0  0  0  0  0  0  0  0  0  0  0
    8.8247    3.9395    0.0000 C   0  0  0  0  0  0  0  0  0  0  0  0
    9.4552    2.5785    0.0000 O   0  0  0  0  0  0  0  0  0  0  0  0
    9.6881    5.1661    0.0000 C   0  0  0  0  0  0  0  0  0  0  0  0
    9.0576    6.5271    0.0000 C   0  0  0  0  0  0  0  0  0  0  0  0
    5.1713    6.6812    0.0000 N   0  0  0  0  0  0  0  0  0  0  0  0
    4.6442    5.2768    0.0000 C   0  0  0  0  0  0  0  0  0  0  0  0
    5.9956    4.6260    0.0000 O   0  0  0  0  0  0  0  0  0  0  0  0
    3.8748    3.9892    0.0000 C   0  0  0  0  0  0  0  0  0  0  0  0
    5.0884    3.1075    0.0000 C   0  0  0  0  0  0  0  0  0  0  0  0
    4.9316    1.6157    0.0000 C   0  0  0  0  0  0  0  0  0  0  0  0
    6.1451    0.7340    0.0000 C   0  0  0  0  0  0  0  0  0  0  0  0
    3.5613    1.0056    0.0000 C   0  0  0  0  0  0  0  0  0  0  0  0
    2.8879    2.8596    0.0000 N   0  0  0  0  0  0  0  0  0  0  0  0
    1.7152    1.9243    0.0000 C   0  0  0  0  0  0  0  0  0  0  0  0
    2.5415    0.6725    0.0000 O   0  0  0  0  0  0  0  0  0  0  0  0
    0.3943    1.2135    0.0000 C   0  0  0  0  0  0  0  0  0  0  0  0
    1.2760    0.0000    0.0000 C   0  0  0  0  0  0  0  0  0  0  0  0
    0.3943   -1.2135    0.0000 C   0  0  0  0  0  0  0  0  0  0  0  0
   -1.0323   -0.7500    0.0000 C   0  0  0  0  0  0  0  0  0  0  0  0
   -1.0323    0.7500    0.0000 N   0  0  0  0  0  0  0  0  0  0  0  0
   -2.5187    0.5487    0.0000 C   0  0  0  0  0  0  0  0  0  0  0  0
   -2.4514   -0.9498    0.0000 O   0  0  0  0  0  0  0  0  0  0  0  0
   -4.0172    0.6159    0.0000 C   0  0  0  0  0  0  0  0  0  0  0  0
   -4.2186   -0.8705    0.0000 N   0  0  0  0  0  0  0  0  0  0  0  0
   -5.6065   -1.4393    0.0000 C   0  0  0  0  0  0  0  0  0  0  0  0
   -6.7931   -0.5217    0.0000 O   0  0  0  0  0  0  0  0  0  0  0  0
   -5.8079   -2.9257    0.0000 C   0  0  0  0  0  0  0  0  0  0  0  0
   -7.1958   -3.4946    0.0000 C   0  0  0  0  0  0  0  0  0  0  0  0
   -7.3972   -4.9810    0.0000 C   0  0  0  0  0  0  0  0  0  0  0  0
   -8.7851   -5.5498    0.0000 C   0  0  0  0  0  0  0  0  0  0  0  0
   -8.9865   -7.0363    0.0000 N   0  0  0  0  0  0  0  0  0  0  0  0
  -10.3744   -7.6051    0.0000 C   0  0  0  0  0  0  0  0  0  0  0  0
  -11.5610   -6.6875    0.0000 N   0  0  0  0  0  0  0  0  0  0  0  0
  -10.5758   -9.0915    0.0000 N   0  0  0  0  0  0  0  0  0  0  0  0
   -4.6213   -3.8433    0.0000 N   0  0  0  0  0  0  0  0  0  0  0  0
   -4.8226   -5.3298    0.0000 C   0  0  0  0  0  0  0  0  0  0  0  0
   -6.2106   -5.8986    0.0000 O   0  0  0  0  0  0  0  0  0  0  0  0
   -3.6360   -6.2473    0.0000 C   0  0  0  0  0  0  0  0  0  0  0  0
   -3.8373   -7.7338    0.0000 C   0  0  0  0  0  0  0  0  0  0  0  0
   -2.6507   -8.6513    0.0000 C   0  0  0  0  0  0  0  0  0  0  0  0
   -2.8521  -10.1378    0.0000 C   0  0  0  0  0  0  0  0  0  0  0  0
   -1.6655  -11.0554    0.0000 N   0  0  0  0  0  0  0  0  0  0  0  0
   -1.8668  -12.5418    0.0000 C   0  0  0  0  0  0  0  0  0  0  0  0
   -3.2548  -13.1106    0.0000 N   0  0  0  0  0  0  0  0  0  0  0  0
   -0.6802  -13.4594    0.0000 N   0  0  0  0  0  0  0  0  0  0  0  0
   -2.2480   -5.6785    0.0000 N   0  0  0  0  0  0  0  0  0  0  0  0
   -1.0614   -6.5961    0.0000 C   0  0  0  0  0  0  0  0  0  0  0  0
    0.3265   -6.0272    0.0000 C   0  0  0  0  0  0  0  0  0  0  0  0
   -1.2628   -8.0825    0.0000 O   0  0  0  0  0  0  0  0  0  0  0  0
   -5.4796    0.9497    0.0000 C   0  0  0  0  0  0  0  0  0  0  0  0
   -6.8589    1.5393    0.0000 S   0  0  0  0  0  0  0  0  0  0  0  0
   -8.1107    2.3656    0.0000 S   0  0  0  0  0  0  0  0  0  0  0  0
   -9.1949    3.4022    0.0000 C   0  0  0  0  0  0  0  0  0  0  0  0
  -10.0766    4.6157    0.0000 C   0  0  0  0  0  0  0  0  0  0  0  0
  -11.3643    3.8464    0.0000 C   0  0  0  0  0  0  0  0  0  0  0  0
  -11.3418    2.3466    0.0000 O   0  0  0  0  0  0  0  0  0  0  0  0
  -12.6744    4.5769    0.0000 N   0  0  0  0  0  0  0  0  0  0  0  0
  -13.9621    3.8075    0.0000 C   0  0  0  0  0  0  0  0  0  0  0  0
  -15.2722    4.5380    0.0000 C   0  0  0  0  0  0  0  0  0  0  0  0
  -16.5599    3.7687    0.0000 C   0  0  0  0  0  0  0  0  0  0  0  0
  -17.8700    4.4991    0.0000 C   0  0  0  0  0  0  0  0  0  0  0  0
  -19.1576    3.7298    0.0000 N   0  0  0  0  0  0  0  0  0  0  0  0
  -20.4678    4.4603    0.0000 C   0  0  0  0  0  0  0  0  0  0  0  0
  -20.4902    5.9601    0.0000 N   0  0  0  0  0  0  0  0  0  0  0  0
  -21.7554    3.6909    0.0000 N   0  0  0  0  0  0  0  0  0  0  0  0
  -13.9396    2.3077    0.0000 C   0  0  0  0  0  0  0  0  0  0  0  0
  -12.6295    1.5772    0.0000 O   0  0  0  0  0  0  0  0  0  0  0  0
  -15.2273    1.5383    0.0000 N   0  0  0  0  0  0  0  0  0  0  0  0
  -15.2049    0.0385    0.0000 C   0  0  0  0  0  0  0  0  0  0  0  0
  -16.4925   -0.7308    0.0000 C   0  0  0  0  0  0  0  0  0  0  0  0
  -16.4701   -2.2307    0.0000 C   0  0  0  0  0  0  0  0  0  0  0  0
  -17.7578   -3.0000    0.0000 C   0  0  0  0  0  0  0  0  0  0  0  0
  -17.7353   -4.4999    0.0000 N   0  0  0  0  0  0  0  0  0  0  0  0
  -19.0230   -5.2692    0.0000 C   0  0  0  0  0  0  0  0  0  0  0  0
  -20.3331   -4.5387    0.0000 N   0  0  0  0  0  0  0  0  0  0  0  0
  -19.0006   -6.7690    0.0000 N   0  0  0  0  0  0  0  0  0  0  0  0
  -13.8948   -0.6920    0.0000 C   0  0  0  0  0  0  0  0  0  0  0  0
  -13.8723   -2.1918    0.0000 N   0  0  0  0  0  0  0  0  0  0  0  0
  -12.6071    0.0774    0.0000 O   0  0  0  0  0  0  0  0  0  0  0  0
  -10.7274    5.9672    0.0000 N   0  0  0  0  0  0  0  0  0  0  0  0
  -11.1265    7.4131    0.0000 C   0  0  0  0  0  0  0  0  0  0  0  0
  -12.6024    7.1453    0.0000 O   0  0  0  0  0  0  0  0  0  0  0  0
  -11.2610    8.9071    0.0000 C   0  0  0  0  0  0  0  0  0  0  0  0
  -12.7610    8.9071    0.0000 C   0  0  0  0  0  0  0  0  0  0  0  0
  -13.5110   10.2061    0.0000 C   0  0  0  0  0  0  0  0  0  0  0  0
  -13.5110    7.6081    0.0000 C   0  0  0  0  0  0  0  0  0  0  0  0
  -11.1265   10.4011    0.0000 N   0  0  0  0  0  0  0  0  0  0  0  0
  -10.7274   11.8470    0.0000 C   0  0  0  0  0  0  0  0  0  0  0  0
  -12.1318   12.3741    0.0000 O   0  0  0  0  0  0  0  0  0  0  0  0
  -10.0766   13.1984    0.0000 C   0  0  0  0  0  0  0  0  0  0  0  0
  -11.5032   13.6620    0.0000 C   0  0  0  0  0  0  0  0  0  0  0  0
  -11.5032   15.1620    0.0000 C   0  0  0  0  0  0  0  0  0  0  0  0
  -10.0766   15.6255    0.0000 C   0  0  0  0  0  0  0  0  0  0  0  0
   -9.1949   14.4120    0.0000 N   0  0  0  0  0  0  0  0  0  0  0  0
   -8.1107   15.4486    0.0000 C   0  0  0  0  0  0  0  0  0  0  0  0
   -9.0460   16.6213    0.0000 O   0  0  0  0  0  0  0  0  0  0  0  0
   -6.8589   16.2749    0.0000 C   0  0  0  0  0  0  0  0  0  0  0  0
   -7.5697   17.5958    0.0000 C   0  0  0  0  0  0  0  0  0  0  0  0
   -6.7812   18.8718    0.0000 C   0  0  0  0  0  0  0  0  0  0  0  0
   -5.2818   18.8270    0.0000 O   0  0  0  0  0  0  0  0  0  0  0  0
   -7.4920   20.1927    0.0000 O   0  0  0  0  0  0  0  0  0  0  0  0
   -5.4796   16.8645    0.0000 N   0  0  0  0  0  0  0  0  0  0  0  0
   -4.0172   17.1982    0.0000 C   0  0  0  0  0  0  0  0  0  0  0  0
   -4.2186   18.6847    0.0000 O   0  0  0  0  0  0  0  0  0  0  0  0
   -2.5187   17.2655    0.0000 C   0  0  0  0  0  0  0  0  0  0  0  0
   -2.4514   18.7640    0.0000 C   0  0  0  0  0  0  0  0  0  0  0  0
   -1.1200   19.4550    0.0000 C   0  0  0  0  0  0  0  0  0  0  0  0
    0.1440   18.6475    0.0000 C   0  0  0  0  0  0  0  0  0  0  0  0
    1.4754   19.3384    0.0000 C   0  0  0  0  0  0  0  0  0  0  0  0
    1.5427   20.8369    0.0000 C   0  0  0  0  0  0  0  0  0  0  0  0
    0.2786   21.6444    0.0000 C   0  0  0  0  0  0  0  0  0  0  0  0
   -1.0527   20.9535    0.0000 C   0  0  0  0  0  0  0  0  0  0  0  0
   -1.0323   17.0642    0.0000 N   0  0  0  0  0  0  0  0  0  0  0  0
    0.3943   16.6007    0.0000 C   0  0  0  0  0  0  0  0  0  0  0  0
    0.9838   17.9799    0.0000 O   0  0  0  0  0  0  0  0  0  0  0  0
    1.7152   15.8899    0.0000 C   0  0  0  0  0  0  0  0  0  0  0  0
    2.5415   17.1417    0.0000 C   0  0  0  0  0  0  0  0  0  0  0  0
    4.0389   17.0520    0.0000 O   0  0  0  0  0  0  0  0  0  0  0  0
    2.8879   14.9546    0.0000 N   0  0  0  0  0  0  0  0  0  0  0  0
    3.8748   13.8250    0.0000 C   0  0  0  0  0  0  0  0  0  0  0  0
    5.0884   14.7067    0.0000 O   0  0  0  0  0  0  0  0  0  0  0  0
  1  2  1  0
  2  3  1  0
  3  4  1  6
  3  5  1  0
  5  6  1  6
  6  7  1  0
  7  8  2  0
  7  9  1  0
  9 10  1  6
 10 11  1  0
 11 12  2  0
 12 13  1  0
 13 14  2  0
 14 15  1  0
 14 16  1  0
 16 17  2  0
  9 18  1  0
 18 19  1  0
 19 20  2  0
 19 21  1  0
 21 22  1  6
 22 23  1  0
 23 24  1  0
 23 25  1  0
 21 26  1  0
 26 27  1  0
 27 28  2  0
 27 29  1  0
 29 30  1  6
 30 31  1  0
 31 32  1  0
 32 33  1  0
 33 34  1  0
 34 35  2  0
 34 36  1  0
 36 37  1  1
 37 38  1  0
 38 39  2  0
 38 40  1  0
 40 41  1  1
 41 42  1  0
 42 43  1  0
 43 44  1  0
 44 45  1  0
 45 46  2  0
 45 47  1  0
 40 48  1  0
 48 49  1  0
 49 50  2  0
 49 51  1  0
 51 52  1  1
 52 53  1  0
 53 54  1  0
 54 55  1  0
 55 56  1  0
 56 57  2  0
 56 58  1  0
 51 59  1  0
 59 60  1  0
 60 61  1  0
 60 62  2  0
 36 63  1  0
 63 64  1  0
 64 65  1  0
 65 66  1  0
 66 67  1  0
 67 68  1  1
 68 69  2  0
 68 70  1  0
 70 71  1  0
 71 72  1  6
 72 73  1  0
 73 74  1  0
 74 75  1  0
 75 76  1  0
 76 77  2  0
 76 78  1  0
 71 79  1  0
 79 80  2  0
 79 81  1  0
 81 82  1  0
 82 83  1  6
 83 84  1  0
 84 85  1  0
 85 86  1  0
 86 87  1  0
 87 88  2  0
 87 89  1  0
 82 90  1  0
 90 91  1  0
 90 92  2  0
 67 93  1  0
 93 94  1  0
 94 95  2  0
 94 96  1  0
 96 97  1  6
 97 98  1  0
 97 99  1  0
 96100  1  0
100101  1  0
101102  2  0
101103  1  0
103104  1  6
104105  1  0
105106  1  0
106107  1  0
107108  1  0
108109  2  0
108110  1  0
110111  1  6
111112  1  0
112113  2  0
112114  1  0
110115  1  0
115116  1  0
116117  2  0
116118  1  0
118119  1  6
119120  1  0
120121  1  0
121122  1  0
122123  1  0
123124  1  0
124125  1  0
118126  1  0
126127  1  0
127128  2  0
127129  1  0
129130  1  6
130131  1  0
129132  1  0
132133  1  0
133134  2  0
133  5  1  0
 17 11  1  0
 33 29  1  0
107103  1  0
125120  1  0
M  END
>  <molecule_chembl_id>  (128) 
CHEMBL5204425

>  <canonical_smiles>  (128) 
CC[C@H](C)[C@@H]1NC(=O)[C@H](Cc2ccc(O)cc2)NC(=O)[C@H](CC(C)C)NC(=O)[C@@H]2CCCN2C(=O)[C@@H](NC(=O)[C@H](CCCNC(=N)N)NC(=O)[C@H](CCCNC(=N)N)NC(C)=O)CSSC[C@@H](C(=O)N[C@@H](CCCNC(=N)N)C(=O)N[C@@H](CCCNC(=N)N)C(N)=O)NC(=O)[C@H](C(C)C)NC(=O)[C@@H]2CCCN2C(=O)[C@H](CC(=O)O)NC(=O)[C@H](CC2CCCCC2)NC(=O)[C@H](CO)NC1=O

>  <pchembl_value_mean>  (128) 
5.83

>  <inchi>  (128) 
InChI=1S/C84H140N28O20S2/c1-8-45(6)65-78(130)106-58(40-113)73(125)103-55(37-47-18-10-9-11-19-47)71(123)105-57(39-63(116)117)79(131)111-34-17-25-62(111)76(128)109-64(44(4)5)77(129)107-59(74(126)101-52(22-14-32-96-83(90)91)68(120)99-50(66(85)118)20-12-30-94-81(86)87)41-133-134-42-60(108-69(121)53(23-15-33-97-84(92)93)100-67(119)51(98-46(7)114)21-13-31-95-82(88)89)80(132)112-35-16-24-61(112)75(127)104-54(36-43(2)3)70(122)102-56(72(124)110-65)38-48-26-28-49(115)29-27-48/h26-29,43-45,47,50-62,64-65,113,115H,8-25,30-42H2,1-7H3,(H2,85,118)(H,98,114)(H,99,120)(H,100,119)(H,101,126)(H,102,122)(H,103,125)(H,104,127)(H,105,123)(H,106,130)(H,107,129)(H,108,121)(H,109,128)(H,110,124)(H,116,117)(H4,86,87,94)(H4,88,89,95)(H4,90,91,96)(H4,92,93,97)/t45-,50-,51-,52-,53-,54-,55-,56-,57-,58-,59-,60-,61-,62-,64-,65-/m0/s1

$$$$

     RDKit          2D

 30 34  0  0  0  0  0  0  0  0999 V2000
    5.2500   -1.2990    0.0000 C   0  0  0  0  0  0  0  0  0  0  0  0
    3.7500   -1.2990    0.0000 C   0  0  0  0  0  0  0  0  0  0  0  0
    3.0000    0.0000    0.0000 C   0  0  0  0  0  0  0  0  0  0  0  0
    3.7500    1.2990    0.0000 O   0  0  0  0  0  0  0  0  0  0  0  0
    1.5000    0.0000    0.0000 N   0  0  0  0  0  0  0  0  0  0  0  0
    0.7500   -1.2990    0.0000 C   0  0  0  0  0  0  0  0  0  0  0  0
   -0.7500   -1.2990    0.0000 C   0  0  0  0  0  0  0  0  0  0  0  0
   -1.5000    0.0000    0.0000 N   0  0  0  0  0  0  0  0  0  0  0  0
   -2.9832   -0.2236    0.0000 C   0  0  0  0  0  0  0  0  0  0  0  0
   -4.0828    0.7967    0.0000 C   0  0  0  0  0  0  0  0  0  0  0  0
   -5.4343    0.1459    0.0000 C   0  0  0  0  0  0  0  0  0  0  0  0
   -6.6736    0.9909    0.0000 C   0  0  0  0  0  0  0  0  0  0  0  0
   -6.5615    2.4867    0.0000 C   0  0  0  0  0  0  0  0  0  0  0  0
   -7.8009    3.3316    0.0000 C   0  0  0  0  0  0  0  0  0  0  0  0
   -7.6888    4.8274    0.0000 C   0  0  0  0  0  0  0  0  0  0  0  0
   -6.3374    5.4783    0.0000 C   0  0  0  0  0  0  0  0  0  0  0  0
   -8.9282    5.6724    0.0000 C   0  0  0  0  0  0  0  0  0  0  0  0
  -10.2796    5.0216    0.0000 C   0  0  0  0  0  0  0  0  0  0  0  0
  -10.3917    3.5258    0.0000 C   0  0  0  0  0  0  0  0  0  0  0  0
  -11.5783    2.6082    0.0000 N   0  0  0  0  0  0  0  0  0  0  0  0
  -11.0723    1.1961    0.0000 N   0  0  0  0  0  0  0  0  0  0  0  0
   -9.5730    1.2410    0.0000 C   0  0  0  0  0  0  0  0  0  0  0  0
   -9.1524    2.6808    0.0000 C   0  0  0  0  0  0  0  0  0  0  0  0
   -5.2101    3.1375    0.0000 C   0  0  0  0  0  0  0  0  0  0  0  0
   -5.0980    4.6333    0.0000 Cl  0  0  0  0  0  0  0  0  0  0  0  0
   -3.9707    2.2925    0.0000 C   0  0  0  0  0  0  0  0  0  0  0  0
   -2.7314    3.1375    0.0000 O   0  0  0  0  0  0  0  0  0  0  0  0
   -1.2980    2.6953    0.0000 C   0  0  0  0  0  0  0  0  0  0  0  0
   -0.7500    1.2990    0.0000 C   0  0  0  0  0  0  0  0  0  0  0  0
    0.7500    1.2990    0.0000 C   0  0  0  0  0  0  0  0  0  0  0  0
  1  2  2  0
  2  3  1  0
  3  4  2  0
  3  5  1  0
  5  6  1  0
  6  7  1  0
  7  8  1  0
  8  9  1  0
  9 10  1  0
 10 11  2  0
 11 12  1  0
 12 13  2  0
 13 14  1  0
 14 15  2  0
 15 16  1  0
 15 17  1  0
 17 18  2  0
 18 19  1  0
 19 20  1  0
 20 21  1  0
 21 22  2  0
 22 23  1  0
 13 24  1  0
 24 25  1  0
 24 26  2  0
 26 27  1  0
 27 28  1  0
 29 28  1  6
 29 30  1  0
 30  5  1  0
 29  8  1  0
 26 10  1  0
 23 14  1  0
 23 19  2  0
M  END
>  <molecule_chembl_id>  (129) 
CHEMBL5431650

>  <canonical_smiles>  (129) 
C=CC(=O)N1CCN2Cc3ccc(-c4c(C)ccc5[nH]ncc45)c(Cl)c3OC[C@@H]2C1

>  <pchembl_value_mean>  (129) 
5.88

>  <inchi>  (129) 
InChI=1S/C23H23ClN4O2/c1-3-20(29)28-9-8-27-11-15-5-6-17(22(24)23(15)30-13-16(27)12-28)21-14(2)4-7-19-18(21)10-25-26-19/h3-7,10,16H,1,8-9,11-13H2,2H3,(H,25,26)/t16-/m0/s1

$$$$

     RDKit          2D

 49 55  0  0  0  0  0  0  0  0999 V2000
   -3.3818  -11.6074    0.0000 C   0  0  0  0  0  0  0  0  0  0  0  0
   -2.1424  -10.7624    0.0000 C   0  0  0  0  0  0  0  0  0  0  0  0
   -0.7910  -11.4132    0.0000 C   0  0  0  0  0  0  0  0  0  0  0  0
    0.4484  -10.5682    0.0000 C   0  0  0  0  0  0  0  0  0  0  0  0
    1.7998  -11.2191    0.0000 N   0  0  0  0  0  0  0  0  0  0  0  0
    0.3363   -9.0724    0.0000 N   0  0  0  0  0  0  0  0  0  0  0  0
   -1.0152   -8.4216    0.0000 C   0  0  0  0  0  0  0  0  0  0  0  0
   -1.1273   -6.9258    0.0000 C   0  0  0  0  0  0  0  0  0  0  0  0
   -2.4787   -6.2750    0.0000 C   0  0  0  0  0  0  0  0  0  0  0  0
   -2.5908   -4.7792    0.0000 C   0  0  0  0  0  0  0  0  0  0  0  0
   -4.0307   -4.3423    0.0000 N   0  0  0  0  0  0  0  0  0  0  0  0
   -4.2543   -2.8590    0.0000 C   0  0  0  0  0  0  0  0  0  0  0  0
   -5.6506   -2.3110    0.0000 O   0  0  0  0  0  0  0  0  0  0  0  0
   -5.8742   -0.8278    0.0000 C   0  0  0  0  0  0  0  0  0  0  0  0
   -7.2705   -0.2797    0.0000 C   0  0  0  0  0  0  0  0  0  0  0  0
   -8.5346   -1.0873    0.0000 C   0  0  0  0  0  0  0  0  0  0  0  0
   -9.6932   -0.1346    0.0000 C   0  0  0  0  0  0  0  0  0  0  0  0
   -9.1452    1.2617    0.0000 C   0  0  0  0  0  0  0  0  0  0  0  0
   -7.6479    1.1720    0.0000 N   0  0  0  0  0  0  0  0  0  0  0  0
   -6.6952    2.3306    0.0000 C   0  0  0  0  0  0  0  0  0  0  0  0
   -3.0815   -1.9238    0.0000 N   0  0  0  0  0  0  0  0  0  0  0  0
   -1.6852   -2.4718    0.0000 C   0  0  0  0  0  0  0  0  0  0  0  0
   -1.3515   -3.9342    0.0000 C   0  0  0  0  0  0  0  0  0  0  0  0
   -0.0000   -4.5850    0.0000 C   0  0  0  0  0  0  0  0  0  0  0  0
    0.1121   -6.0808    0.0000 C   0  0  0  0  0  0  0  0  0  0  0  0
    1.4635   -6.7316    0.0000 Cl  0  0  0  0  0  0  0  0  0  0  0  0
    1.3515   -3.9342    0.0000 O   0  0  0  0  0  0  0  0  0  0  0  0
    1.6852   -2.4718    0.0000 C   0  0  0  0  0  0  0  0  0  0  0  0
    0.7500   -1.2990    0.0000 C   0  0  0  0  0  0  0  0  0  0  0  0
    1.5000    0.0000    0.0000 C   0  0  0  0  0  0  0  0  0  0  0  0
    0.7500    1.2990    0.0000 N   0  0  0  0  0  0  0  0  0  0  0  0
    1.5000    2.5981    0.0000 C   0  0  0  0  0  0  0  0  0  0  0  0
    0.7500    3.8971    0.0000 O   0  0  0  0  0  0  0  0  0  0  0  0
    3.0000    2.5981    0.0000 C   0  0  0  0  0  0  0  0  0  0  0  0
    3.7500    3.8971    0.0000 C   0  0  0  0  0  0  0  0  0  0  0  0
    5.2500    3.8971    0.0000 C   0  0  0  0  0  0  0  0  0  0  0  0
    5.0932    2.4053    0.0000 N   0  0  0  0  0  0  0  0  0  0  0  0
    6.7172    3.5852    0.0000 C   0  0  0  0  0  0  0  0  0  0  0  0
    7.4672    4.8843    0.0000 C   0  0  0  0  0  0  0  0  0  0  0  0
    6.4635    5.9990    0.0000 O   0  0  0  0  0  0  0  0  0  0  0  0
    5.0932    5.3889    0.0000 C   0  0  0  0  0  0  0  0  0  0  0  0
   -0.7500    1.2990    0.0000 C   0  0  0  0  0  0  0  0  0  0  0  0
   -1.5000    0.0000    0.0000 C   0  0  0  0  0  0  0  0  0  0  0  0
   -0.7500   -1.2990    0.0000 N   0  0  0  0  0  0  0  0  0  0  0  0
   -2.2545   -9.2666    0.0000 C   0  0  0  0  0  0  0  0  0  0  0  0
   -3.6060   -8.6157    0.0000 C   0  0  0  0  0  0  0  0  0  0  0  0
   -4.9574   -7.9649    0.0000 F   0  0  0  0  0  0  0  0  0  0  0  0
   -4.2568   -9.9672    0.0000 F   0  0  0  0  0  0  0  0  0  0  0  0
   -2.9552   -7.2643    0.0000 F   0  0  0  0  0  0  0  0  0  0  0  0
  1  2  1  0
  2  3  2  0
  3  4  1  0
  4  5  1  0
  4  6  2  0
  6  7  1  0
  7  8  1  0
  8  9  2  0
  9 10  1  0
 10 11  2  0
 11 12  1  0
 12 13  1  0
 13 14  1  0
 15 14  1  6
 15 16  1  0
 16 17  1  0
 17 18  1  0
 18 19  1  0
 19 20  1  0
 12 21  2  0
 21 22  1  0
 22 23  2  0
 23 24  1  0
 24 25  2  0
 25 26  1  0
 24 27  1  0
 27 28  1  0
 29 28  1  1
 29 30  1  0
 30 31  1  0
 31 32  1  0
 32 33  2  0
 32 34  1  0
 34 35  1  0
 35 36  1  0
 36 37  1  0
 36 38  1  0
 38 39  1  0
 39 40  1  0
 40 41  1  0
 31 42  1  0
 42 43  1  0
 43 44  1  0
  7 45  2  0
 45 46  1  0
 46 47  1  0
 46 48  1  0
 46 49  1  0
 45  2  1  0
 25  8  1  0
 44 29  1  0
 23 10  1  0
 41 36  1  0
 19 15  1  0
 44 22  1  0
M  END
>  <molecule_chembl_id>  (130) 
CHEMBL5407640

>  <canonical_smiles>  (130) 
Cc1cc(N)nc(-c2cc3nc(OC[C@@H]4CCCN4C)nc4c3c(c2Cl)OC[C@@H]2CN(C(=O)CCC3(N)CCOC3)CCN42)c1C(F)(F)F

>  <pchembl_value_mean>  (130) 
5.89

>  <inchi>  (130) 
InChI=1S/C33H40ClF3N8O4/c1-18-12-23(38)41-28(26(18)33(35,36)37)21-13-22-25-29(27(21)34)48-16-20-14-44(24(46)5-6-32(39)7-11-47-17-32)9-10-45(20)30(25)42-31(40-22)49-15-19-4-3-8-43(19)2/h12-13,19-20H,3-11,14-17,39H2,1-2H3,(H2,38,41)/t19-,20-,32?/m0/s1

$$$$

     RDKit          2D

 37 43  0  0  0  0  0  0  0  0999 V2000
    2.5607   -7.0333    0.0000 C   0  0  0  0  0  0  0  0  0  0  0  0
    3.3107   -5.7342    0.0000 N   0  0  0  0  0  0  0  0  0  0  0  0
    4.8107   -5.7342    0.0000 C   0  0  0  0  0  0  0  0  0  0  0  0
    2.5607   -4.4352    0.0000 C   0  0  0  0  0  0  0  0  0  0  0  0
    1.1118   -4.0470    0.0000 C   0  0  0  0  0  0  0  0  0  0  0  0
    1.5000   -2.5981    0.0000 N   0  0  0  0  0  0  0  0  0  0  0  0
    0.7500   -1.2990    0.0000 C   0  0  0  0  0  0  0  0  0  0  0  0
    1.5000    0.0000    0.0000 N   0  0  0  0  0  0  0  0  0  0  0  0
    0.7500    1.2990    0.0000 C   0  0  0  0  0  0  0  0  0  0  0  0
    1.5000    2.5981    0.0000 N   0  0  0  0  0  0  0  0  0  0  0  0
    3.0000    2.5981    0.0000 C   0  0  0  0  0  0  0  0  0  0  0  0
    3.7500    3.8971    0.0000 C   0  0  0  0  0  0  0  0  0  0  0  0
    4.0619    5.3643    0.0000 C   0  0  0  0  0  0  0  0  0  0  0  0
    2.7628    6.1143    0.0000 C   0  0  0  0  0  0  0  0  0  0  0  0
    1.6481    5.1106    0.0000 C   0  0  0  0  0  0  0  0  0  0  0  0
    0.7500    3.8971    0.0000 C   0  0  0  0  0  0  0  0  0  0  0  0
    2.2582    3.7403    0.0000 N   0  0  0  0  0  0  0  0  0  0  0  0
   -0.7500    1.2990    0.0000 C   0  0  0  0  0  0  0  0  0  0  0  0
   -1.5000    2.5981    0.0000 C   0  0  0  0  0  0  0  0  0  0  0  0
   -3.0000    2.5981    0.0000 N   0  0  0  0  0  0  0  0  0  0  0  0
   -3.7500    1.2990    0.0000 C   0  0  0  0  0  0  0  0  0  0  0  0
   -5.2500    1.2990    0.0000 C   0  0  0  0  0  0  0  0  0  0  0  0
   -6.0000   -0.0000    0.0000 C   0  0  0  0  0  0  0  0  0  0  0  0
   -7.5000   -0.0000    0.0000 C   0  0  0  0  0  0  0  0  0  0  0  0
   -8.2500   -1.2990    0.0000 O   0  0  0  0  0  0  0  0  0  0  0  0
   -8.2500    1.2990    0.0000 C   0  0  0  0  0  0  0  0  0  0  0  0
   -7.5000    2.5981    0.0000 C   0  0  0  0  0  0  0  0  0  0  0  0
   -8.2500    3.8971    0.0000 C   0  0  0  0  0  0  0  0  0  0  0  0
   -7.5000    5.1962    0.0000 C   0  0  0  0  0  0  0  0  0  0  0  0
   -6.0000    5.1962    0.0000 C   0  0  0  0  0  0  0  0  0  0  0  0
   -5.2500    3.8971    0.0000 C   0  0  0  0  0  0  0  0  0  0  0  0
   -6.0000    2.5981    0.0000 C   0  0  0  0  0  0  0  0  0  0  0  0
   -3.0000    0.0000    0.0000 C   0  0  0  0  0  0  0  0  0  0  0  0
   -3.7500   -1.2990    0.0000 F   0  0  0  0  0  0  0  0  0  0  0  0
   -1.5000    0.0000    0.0000 C   0  0  0  0  0  0  0  0  0  0  0  0
   -0.7500   -1.2990    0.0000 N   0  0  0  0  0  0  0  0  0  0  0  0
    2.9489   -2.9863    0.0000 C   0  0  0  0  0  0  0  0  0  0  0  0
  1  2  1  0
  2  3  1  0
  2  4  1  0
  4  5  1  0
  5  6  1  0
  6  7  1  0
  7  8  2  0
  8  9  1  0
  9 10  1  0
 10 11  1  0
 11 12  1  0
 12 13  1  0
 13 14  1  0
 14 15  1  0
 15 16  1  0
 15 17  1  0
  9 18  2  0
 18 19  1  0
 19 20  2  0
 20 21  1  0
 21 22  1  0
 22 23  2  0
 23 24  1  0
 24 25  1  0
 24 26  2  0
 26 27  1  0
 27 28  2  0
 28 29  1  0
 29 30  2  0
 30 31  1  0
 31 32  2  0
 21 33  2  0
 33 34  1  0
 33 35  1  0
 35 36  2  0
  6 37  1  0
 37  4  1  0
 36  7  1  0
 16 10  1  0
 35 18  1  0
 17 12  1  0
 32 22  1  0
 32 27  1  0
M  END
>  <molecule_chembl_id>  (131) 
CHEMBL5090412

>  <canonical_smiles>  (131) 
CN(C)C1CN(c2nc(N3CC4CCC(C3)N4)c3cnc(-c4cc(O)cc5ccccc45)c(F)c3n2)C1

>  <pchembl_value_mean>  (131) 
5.89

>  <inchi>  (131) 
InChI=1S/C28H30FN7O/c1-34(2)19-14-36(15-19)28-32-26-23(27(33-28)35-12-17-7-8-18(13-35)31-17)11-30-25(24(26)29)22-10-20(37)9-16-5-3-4-6-21(16)22/h3-6,9-11,17-19,31,37H,7-8,12-15H2,1-2H3

$$$$

     RDKit          2D

161170  0  0  0  0  0  0  0  0999 V2000
   10.7457  -10.5769    0.0000 C   0  0  0  0  0  0  0  0  0  0  0  0
    9.2499  -10.6890    0.0000 C   0  0  0  0  0  0  0  0  0  0  0  0
    8.5991  -12.0404    0.0000 N   0  0  0  0  0  0  0  0  0  0  0  0
    7.1033  -12.1525    0.0000 C   0  0  0  0  0  0  0  0  0  0  0  0
    6.2583  -10.9132    0.0000 O   0  0  0  0  0  0  0  0  0  0  0  0
    6.4525  -13.5040    0.0000 C   0  0  0  0  0  0  0  0  0  0  0  0
    7.2975  -14.7434    0.0000 C   0  0  0  0  0  0  0  0  0  0  0  0
    8.7933  -14.6313    0.0000 C   0  0  0  0  0  0  0  0  0  0  0  0
    9.6382  -15.8706    0.0000 C   0  0  0  0  0  0  0  0  0  0  0  0
   11.1341  -15.7585    0.0000 C   0  0  0  0  0  0  0  0  0  0  0  0
   11.7849  -14.4071    0.0000 C   0  0  0  0  0  0  0  0  0  0  0  0
   10.9399  -13.1677    0.0000 C   0  0  0  0  0  0  0  0  0  0  0  0
    9.4441  -13.2798    0.0000 C   0  0  0  0  0  0  0  0  0  0  0  0
    4.9567  -13.6161    0.0000 N   0  0  0  0  0  0  0  0  0  0  0  0
    4.1117  -12.3767    0.0000 C   0  0  0  0  0  0  0  0  0  0  0  0
    4.7625  -11.0253    0.0000 O   0  0  0  0  0  0  0  0  0  0  0  0
    2.6159  -12.4888    0.0000 C   0  0  0  0  0  0  0  0  0  0  0  0
    1.9651  -13.8403    0.0000 C   0  0  0  0  0  0  0  0  0  0  0  0
    2.8100  -15.0796    0.0000 C   0  0  0  0  0  0  0  0  0  0  0  0
    2.1592  -16.4311    0.0000 C   0  0  0  0  0  0  0  0  0  0  0  0
    3.0042  -17.6705    0.0000 N   0  0  0  0  0  0  0  0  0  0  0  0
    2.3534  -19.0219    0.0000 C   0  0  0  0  0  0  0  0  0  0  0  0
    0.8576  -19.1340    0.0000 N   0  0  0  0  0  0  0  0  0  0  0  0
    3.1984  -20.2613    0.0000 N   0  0  0  0  0  0  0  0  0  0  0  0
    1.7709  -11.2495    0.0000 N   0  0  0  0  0  0  0  0  0  0  0  0
    2.4217   -9.8980    0.0000 C   0  0  0  0  0  0  0  0  0  0  0  0
    3.9175   -9.7859    0.0000 O   0  0  0  0  0  0  0  0  0  0  0  0
    1.5768   -8.6587    0.0000 C   0  0  0  0  0  0  0  0  0  0  0  0
    0.0810   -8.7708    0.0000 C   0  0  0  0  0  0  0  0  0  0  0  0
   -0.5699  -10.1222    0.0000 C   0  0  0  0  0  0  0  0  0  0  0  0
   -2.0657  -10.2343    0.0000 C   0  0  0  0  0  0  0  0  0  0  0  0
   -2.7165  -11.5858    0.0000 N   0  0  0  0  0  0  0  0  0  0  0  0
    2.2276   -7.3072    0.0000 N   0  0  0  0  0  0  0  0  0  0  0  0
    3.7234   -7.1951    0.0000 C   0  0  0  0  0  0  0  0  0  0  0  0
    4.5684   -8.4345    0.0000 O   0  0  0  0  0  0  0  0  0  0  0  0
    4.3742   -5.8437    0.0000 C   0  0  0  0  0  0  0  0  0  0  0  0
    3.1041   -5.0456    0.0000 C   0  0  0  0  0  0  0  0  0  0  0  0
    2.0435   -3.9849    0.0000 N   0  0  0  0  0  0  0  0  0  0  0  0
    1.2454   -2.7149    0.0000 C   0  0  0  0  0  0  0  0  0  0  0  0
   -0.1060   -3.3657    0.0000 O   0  0  0  0  0  0  0  0  0  0  0  0
    0.7500   -1.2990    0.0000 C   0  0  0  0  0  0  0  0  0  0  0  0
    1.5000    0.0000    0.0000 C   0  0  0  0  0  0  0  0  0  0  0  0
    0.7500    1.2990    0.0000 C   0  0  0  0  0  0  0  0  0  0  0  0
   -0.7500    1.2990    0.0000 C   0  0  0  0  0  0  0  0  0  0  0  0
   -1.5000    0.0000    0.0000 C   0  0  0  0  0  0  0  0  0  0  0  0
   -0.7500   -1.2990    0.0000 C   0  0  0  0  0  0  0  0  0  0  0  0
   -2.7514    0.8271    0.0000 C   0  0  0  0  0  0  0  0  0  0  0  0
   -3.7181   -0.3198    0.0000 O   0  0  0  0  0  0  0  0  0  0  0  0
   -3.7782    1.9205    0.0000 N   0  0  0  0  0  0  0  0  0  0  0  0
   -4.5253    3.2212    0.0000 C   0  0  0  0  0  0  0  0  0  0  0  0
   -5.9040    2.6302    0.0000 C   0  0  0  0  0  0  0  0  0  0  0  0
   -6.0815    1.1408    0.0000 C   0  0  0  0  0  0  0  0  0  0  0  0
   -4.8803    0.2423    0.0000 C   0  0  0  0  0  0  0  0  0  0  0  0
   -5.0578   -1.2471    0.0000 C   0  0  0  0  0  0  0  0  0  0  0  0
   -6.4365   -1.8381    0.0000 C   0  0  0  0  0  0  0  0  0  0  0  0
   -6.6140   -3.3276    0.0000 C   0  0  0  0  0  0  0  0  0  0  0  0
   -7.9927   -3.9186    0.0000 C   0  0  0  0  0  0  0  0  0  0  0  0
   -9.1939   -3.0201    0.0000 C   0  0  0  0  0  0  0  0  0  0  0  0
   -9.0163   -1.5307    0.0000 C   0  0  0  0  0  0  0  0  0  0  0  0
   -7.6377   -0.9397    0.0000 C   0  0  0  0  0  0  0  0  0  0  0  0
   -7.4602    0.5498    0.0000 C   0  0  0  0  0  0  0  0  0  0  0  0
   -4.9522    4.6592    0.0000 C   0  0  0  0  0  0  0  0  0  0  0  0
   -6.4300    4.4021    0.0000 O   0  0  0  0  0  0  0  0  0  0  0  0
   -5.0361    6.1568    0.0000 N   0  0  0  0  0  0  0  0  0  0  0  0
   -4.7722    7.6335    0.0000 C   0  0  0  0  0  0  0  0  0  0  0  0
   -6.2082    8.0669    0.0000 C   0  0  0  0  0  0  0  0  0  0  0  0
   -7.3016    7.0400    0.0000 C   0  0  0  0  0  0  0  0  0  0  0  0
   -8.7376    7.4735    0.0000 N   0  0  0  0  0  0  0  0  0  0  0  0
   -6.9590    5.5797    0.0000 O   0  0  0  0  0  0  0  0  0  0  0  0
   -4.1750    9.0094    0.0000 C   0  0  0  0  0  0  0  0  0  0  0  0
   -5.4723    9.7624    0.0000 O   0  0  0  0  0  0  0  0  0  0  0  0
   -3.2765   10.2106    0.0000 N   0  0  0  0  0  0  0  0  0  0  0  0
   -2.1253   11.1722    0.0000 C   0  0  0  0  0  0  0  0  0  0  0  0
   -2.9467   12.4273    0.0000 C   0  0  0  0  0  0  0  0  0  0  0  0
   -4.4444   12.3434    0.0000 C   0  0  0  0  0  0  0  0  0  0  0  0
   -5.2658   13.5985    0.0000 N   0  0  0  0  0  0  0  0  0  0  0  0
   -5.1206   11.0045    0.0000 O   0  0  0  0  0  0  0  0  0  0  0  0
   -0.7833   11.8423    0.0000 C   0  0  0  0  0  0  0  0  0  0  0  0
   -1.2931   13.2530    0.0000 O   0  0  0  0  0  0  0  0  0  0  0  0
    0.6770   12.1849    0.0000 N   0  0  0  0  0  0  0  0  0  0  0  0
    2.1770   12.1815    0.0000 C   0  0  0  0  0  0  0  0  0  0  0  0
    2.3546   13.6710    0.0000 C   0  0  0  0  0  0  0  0  0  0  0  0
    1.1534   14.5694    0.0000 C   0  0  0  0  0  0  0  0  0  0  0  0
   -0.2253   13.9785    0.0000 C   0  0  0  0  0  0  0  0  0  0  0  0
   -1.4264   14.8769    0.0000 C   0  0  0  0  0  0  0  0  0  0  0  0
   -1.2489   16.3664    0.0000 C   0  0  0  0  0  0  0  0  0  0  0  0
   -2.4501   17.2648    0.0000 C   0  0  0  0  0  0  0  0  0  0  0  0
   -2.2725   18.7543    0.0000 C   0  0  0  0  0  0  0  0  0  0  0  0
   -0.8939   19.3453    0.0000 C   0  0  0  0  0  0  0  0  0  0  0  0
    0.3073   18.4468    0.0000 C   0  0  0  0  0  0  0  0  0  0  0  0
    0.1298   16.9574    0.0000 C   0  0  0  0  0  0  0  0  0  0  0  0
    1.3309   16.0589    0.0000 C   0  0  0  0  0  0  0  0  0  0  0  0
    3.6358   11.8323    0.0000 C   0  0  0  0  0  0  0  0  0  0  0  0
    4.1520   13.2407    0.0000 O   0  0  0  0  0  0  0  0  0  0  0  0
    4.9747   11.1561    0.0000 N   0  0  0  0  0  0  0  0  0  0  0  0
    6.1216   10.1893    0.0000 C   0  0  0  0  0  0  0  0  0  0  0  0
    7.2150   11.2162    0.0000 C   0  0  0  0  0  0  0  0  0  0  0  0
    8.6510   10.7827    0.0000 C   0  0  0  0  0  0  0  0  0  0  0  0
    9.7444   11.8096    0.0000 C   0  0  0  0  0  0  0  0  0  0  0  0
    9.4018   13.2699    0.0000 C   0  0  0  0  0  0  0  0  0  0  0  0
    7.9658   13.7034    0.0000 C   0  0  0  0  0  0  0  0  0  0  0  0
    6.8724   12.6765    0.0000 C   0  0  0  0  0  0  0  0  0  0  0  0
    7.0146    8.9841    0.0000 C   0  0  0  0  0  0  0  0  0  0  0  0
    8.3154    9.7311    0.0000 O   0  0  0  0  0  0  0  0  0  0  0  0
    7.6056    7.6054    0.0000 N   0  0  0  0  0  0  0  0  0  0  0  0
    8.7712    6.7221    0.0000 C   0  0  0  0  0  0  0  0  0  0  0  0
    7.2806    6.1901    0.0000 C   0  0  0  0  0  0  0  0  0  0  0  0
    5.9458    6.0397    0.0000 C   0  0  0  0  0  0  0  0  0  0  0  0
    4.6779    5.5960    0.0000 C   0  0  0  0  0  0  0  0  0  0  0  0
    3.5406    4.8814    0.0000 C   0  0  0  0  0  0  0  0  0  0  0  0
    2.5907    3.9316    0.0000 N   0  0  0  0  0  0  0  0  0  0  0  0
    1.5931    2.4904    0.0000 C   0  0  0  0  0  0  0  0  0  0  0  0
   -0.1060    3.7487    0.0000 O   0  0  0  0  0  0  0  0  0  0  0  0
   10.1870    6.2267    0.0000 C   0  0  0  0  0  0  0  0  0  0  0  0
   10.8378    7.5782    0.0000 O   0  0  0  0  0  0  0  0  0  0  0  0
   11.4571    5.4287    0.0000 N   0  0  0  0  0  0  0  0  0  0  0  0
   12.5177    4.3680    0.0000 C   0  0  0  0  0  0  0  0  0  0  0  0
   13.6905    5.3032    0.0000 C   0  0  0  0  0  0  0  0  0  0  0  0
   15.0868    4.7552    0.0000 C   0  0  0  0  0  0  0  0  0  0  0  0
   15.3104    3.2720    0.0000 C   0  0  0  0  0  0  0  0  0  0  0  0
   16.7067    2.7240    0.0000 C   0  0  0  0  0  0  0  0  0  0  0  0
   17.8794    3.6592    0.0000 C   0  0  0  0  0  0  0  0  0  0  0  0
   17.6559    5.1425    0.0000 C   0  0  0  0  0  0  0  0  0  0  0  0
   16.2596    5.6905    0.0000 C   0  0  0  0  0  0  0  0  0  0  0  0
   13.3158    3.0979    0.0000 C   0  0  0  0  0  0  0  0  0  0  0  0
   14.6672    3.7487    0.0000 O   0  0  0  0  0  0  0  0  0  0  0  0
   13.8112    1.6821    0.0000 N   0  0  0  0  0  0  0  0  0  0  0  0
   13.9792    0.1915    0.0000 C   0  0  0  0  0  0  0  0  0  0  0  0
   15.4792    0.1915    0.0000 C   0  0  0  0  0  0  0  0  0  0  0  0
   16.2292   -1.1075    0.0000 C   0  0  0  0  0  0  0  0  0  0  0  0
   17.7292   -1.1075    0.0000 C   0  0  0  0  0  0  0  0  0  0  0  0
   18.4792   -2.4065    0.0000 N   0  0  0  0  0  0  0  0  0  0  0  0
   18.4792    0.1915    0.0000 O   0  0  0  0  0  0  0  0  0  0  0  0
   13.8112   -1.2990    0.0000 C   0  0  0  0  0  0  0  0  0  0  0  0
   15.2736   -1.6328    0.0000 O   0  0  0  0  0  0  0  0  0  0  0  0
   13.3158   -2.7149    0.0000 N   0  0  0  0  0  0  0  0  0  0  0  0
   12.5177   -3.9849    0.0000 C   0  0  0  0  0  0  0  0  0  0  0  0
   13.6905   -4.9202    0.0000 C   0  0  0  0  0  0  0  0  0  0  0  0
   13.4669   -6.4034    0.0000 C   0  0  0  0  0  0  0  0  0  0  0  0
   14.6397   -7.3387    0.0000 C   0  0  0  0  0  0  0  0  0  0  0  0
   14.4161   -8.8219    0.0000 N   0  0  0  0  0  0  0  0  0  0  0  0
   15.5889   -9.7571    0.0000 C   0  0  0  0  0  0  0  0  0  0  0  0
   16.9852   -9.2091    0.0000 N   0  0  0  0  0  0  0  0  0  0  0  0
   15.3653  -11.2404    0.0000 N   0  0  0  0  0  0  0  0  0  0  0  0
   11.4571   -5.0456    0.0000 C   0  0  0  0  0  0  0  0  0  0  0  0
   12.3923   -6.2184    0.0000 O   0  0  0  0  0  0  0  0  0  0  0  0
   10.1870   -5.8437    0.0000 N   0  0  0  0  0  0  0  0  0  0  0  0
    8.7712   -6.3391    0.0000 C   0  0  0  0  0  0  0  0  0  0  0  0
    9.1050   -7.8015    0.0000 C   0  0  0  0  0  0  0  0  0  0  0  0
    8.0054   -8.8217    0.0000 C   0  0  0  0  0  0  0  0  0  0  0  0
    8.3392  -10.2841    0.0000 C   0  0  0  0  0  0  0  0  0  0  0  0
    7.2396  -11.3044    0.0000 N   0  0  0  0  0  0  0  0  0  0  0  0
    7.5734  -12.7668    0.0000 C   0  0  0  0  0  0  0  0  0  0  0  0
    8.3693  -12.8104    0.0000 N   0  0  0  0  0  0  0  0  0  0  0  0
    6.7533  -14.0228    0.0000 N   0  0  0  0  0  0  0  0  0  0  0  0
    7.2806   -6.5070    0.0000 C   0  0  0  0  0  0  0  0  0  0  0  0
    7.2806   -8.0070    0.0000 O   0  0  0  0  0  0  0  0  0  0  0  0
    5.7900   -6.3391    0.0000 N   0  0  0  0  0  0  0  0  0  0  0  0
    8.4050   -9.4496    0.0000 C   0  0  0  0  0  0  0  0  0  0  0  0
    9.3635   -8.2958    0.0000 N   0  0  0  0  0  0  0  0  0  0  0  0
    6.9092   -9.5617    0.0000 O   0  0  0  0  0  0  0  0  0  0  0  0
  2  1  1  1
  2  3  1  0
  3  4  1  0
  4  5  2  0
  4  6  1  0
  6  7  1  6
  7  8  1  0
  8  9  2  0
  9 10  1  0
 10 11  2  0
 11 12  1  0
 12 13  2  0
  6 14  1  0
 14 15  1  0
 15 16  2  0
 15 17  1  0
 17 18  1  1
 18 19  1  0
 19 20  1  0
 20 21  1  0
 21 22  1  0
 22 23  2  0
 22 24  1  0
 17 25  1  0
 25 26  1  0
 26 27  2  0
 26 28  1  0
 28 29  1  6
 29 30  1  0
 30 31  1  0
 31 32  1  0
 28 33  1  0
 33 34  1  0
 34 35  2  0
 36 34  1  6
 36 37  1  0
 37 38  1  0
 38 39  1  0
 39 40  2  0
 39 41  1  0
 41 42  2  0
 42 43  1  0
 43 44  2  0
 44 45  1  0
 45 46  2  0
 45 47  1  0
 47 48  2  0
 47 49  1  0
 49 50  1  0
 50 51  1  6
 51 52  1  0
 52 53  2  0
 53 54  1  0
 54 55  2  0
 55 56  1  0
 56 57  2  0
 57 58  1  0
 58 59  2  0
 59 60  1  0
 60 61  2  0
 50 62  1  0
 62 63  2  0
 62 64  1  0
 64 65  1  0
 65 66  1  1
 66 67  1  0
 67 68  1  0
 67 69  2  0
 65 70  1  0
 70 71  2  0
 70 72  1  0
 72 73  1  0
 73 74  1  1
 74 75  1  0
 75 76  1  0
 75 77  2  0
 73 78  1  0
 78 79  2  0
 78 80  1  0
 80 81  1  0
 81 82  1  6
 82 83  1  0
 83 84  2  0
 84 85  1  0
 85 86  2  0
 86 87  1  0
 87 88  2  0
 88 89  1  0
 89 90  2  0
 90 91  1  0
 91 92  2  0
 81 93  1  0
 93 94  2  0
 93 95  1  0
 95 96  1  0
 96 97  1  1
 97 98  2  0
 98 99  1  0
 99100  2  0
100101  1  0
101102  2  0
 96103  1  0
103104  2  0
103105  1  0
106105  1  6
106107  1  0
107108  1  0
108109  1  0
109110  1  0
110111  1  0
111112  1  0
112113  2  0
106114  1  0
114115  2  0
114116  1  0
116117  1  0
117118  1  6
118119  1  0
119120  2  0
120121  1  0
121122  2  0
122123  1  0
123124  2  0
117125  1  0
125126  2  0
125127  1  0
127128  1  0
128129  1  6
129130  1  0
130131  1  0
131132  1  0
131133  2  0
128134  1  0
134135  2  0
134136  1  0
136137  1  0
137138  1  6
138139  1  0
139140  1  0
140141  1  0
141142  1  0
142143  2  0
142144  1  0
137145  1  0
145146  2  0
145147  1  0
147148  1  0
148149  1  1
149150  1  0
150151  1  0
151152  1  0
152153  1  0
153154  2  0
153155  1  0
148156  1  0
156157  2  0
156158  1  0
  2159  1  0
159160  1  0
159161  2  0
 13  8  1  0
158 36  1  0
 46 41  1  0
 61 52  1  0
 92 83  1  0
102 97  1  0
124119  1  0
112 43  1  0
 60 55  1  0
 91 86  1  0
M  END
>  <molecule_chembl_id>  (132) 
CHEMBL4876688

>  <canonical_smiles>  (132) 
C[C@@H](NC(=O)[C@H](Cc1ccccc1)NC(=O)[C@@H](CCCNC(=N)N)NC(=O)[C@H](CCCN)NC(=O)[C@@H]1CNC(=O)c2cc3cc(c2)C(=O)N[C@H](Cc2ccc4ccccc4c2)C(=O)N[C@@H](CC(N)=O)C(=O)N[C@@H](CC(N)=O)C(=O)N[C@H](Cc2ccc4ccccc4c2)C(=O)N[C@@H](c2ccccc2)C(=O)N[C@@H](CCCCNC3=O)C(=O)N[C@H](Cc2ccccc2)C(=O)N[C@H](CCC(N)=O)C(=O)N[C@H](CCCNC(=N)N)C(=O)N[C@@H](CCCNC(=N)N)C(=O)N1)C(N)=O

>  <pchembl_value_mean>  (132) 
5.89

>  <inchi>  (132) 
InChI=1S/C109H139N31O21/c1-59(89(114)144)126-99(154)78(49-60-21-5-2-6-22-60)134-96(151)75(34-19-45-123-108(117)118)127-93(148)73(32-17-42-110)130-105(160)84-58-125-91(146)70-53-69-54-71(55-70)92(147)133-80(51-62-36-38-64-25-11-13-29-67(64)47-62)101(156)137-83(57-87(113)143)103(158)138-82(56-86(112)142)102(157)136-81(52-63-37-39-65-26-12-14-30-68(65)48-63)104(159)140-88(66-27-9-4-10-28-66)106(161)132-72(31-15-16-43-121-90(69)145)95(150)135-79(50-61-23-7-3-8-24-61)100(155)131-77(40-41-85(111)141)98(153)129-74(33-18-44-122-107(115)116)94(149)128-76(97(152)139-84)35-20-46-124-109(119)120/h2-14,21-30,36-39,47-48,53-55,59,72-84,88H,15-20,31-35,40-46,49-52,56-58,110H2,1H3,(H2,111,141)(H2,112,142)(H2,113,143)(H2,114,144)(H,121,145)(H,125,146)(H,126,154)(H,127,148)(H,128,149)(H,129,153)(H,130,160)(H,131,155)(H,132,161)(H,133,147)(H,134,151)(H,135,150)(H,136,157)(H,137,156)(H,138,158)(H,139,152)(H,140,159)(H4,115,116,122)(H4,117,118,123)(H4,119,120,124)/t59-,72+,73+,74-,75-,76+,77-,78+,79-,80-,81-,82+,83+,84+,88+/m1/s1

$$$$

     RDKit          2D

161170  0  0  0  0  0  0  0  0999 V2000
   10.7457  -10.5769    0.0000 C   0  0  0  0  0  0  0  0  0  0  0  0
    9.2499  -10.6890    0.0000 C   0  0  0  0  0  0  0  0  0  0  0  0
    8.5991  -12.0404    0.0000 N   0  0  0  0  0  0  0  0  0  0  0  0
    7.1033  -12.1525    0.0000 C   0  0  0  0  0  0  0  0  0  0  0  0
    6.2583  -10.9132    0.0000 O   0  0  0  0  0  0  0  0  0  0  0  0
    6.4525  -13.5040    0.0000 C   0  0  0  0  0  0  0  0  0  0  0  0
    7.2975  -14.7434    0.0000 C   0  0  0  0  0  0  0  0  0  0  0  0
    8.7933  -14.6313    0.0000 C   0  0  0  0  0  0  0  0  0  0  0  0
    9.6382  -15.8706    0.0000 C   0  0  0  0  0  0  0  0  0  0  0  0
   11.1341  -15.7585    0.0000 C   0  0  0  0  0  0  0  0  0  0  0  0
   11.7849  -14.4071    0.0000 C   0  0  0  0  0  0  0  0  0  0  0  0
   10.9399  -13.1677    0.0000 C   0  0  0  0  0  0  0  0  0  0  0  0
    9.4441  -13.2798    0.0000 C   0  0  0  0  0  0  0  0  0  0  0  0
    4.9567  -13.6161    0.0000 N   0  0  0  0  0  0  0  0  0  0  0  0
    4.1117  -12.3767    0.0000 C   0  0  0  0  0  0  0  0  0  0  0  0
    4.7625  -11.0253    0.0000 O   0  0  0  0  0  0  0  0  0  0  0  0
    2.6159  -12.4888    0.0000 C   0  0  0  0  0  0  0  0  0  0  0  0
    1.9651  -13.8403    0.0000 C   0  0  0  0  0  0  0  0  0  0  0  0
    2.8100  -15.0796    0.0000 C   0  0  0  0  0  0  0  0  0  0  0  0
    2.1592  -16.4311    0.0000 C   0  0  0  0  0  0  0  0  0  0  0  0
    3.0042  -17.6705    0.0000 N   0  0  0  0  0  0  0  0  0  0  0  0
    2.3534  -19.0219    0.0000 C   0  0  0  0  0  0  0  0  0  0  0  0
    0.8576  -19.1340    0.0000 N   0  0  0  0  0  0  0  0  0  0  0  0
    3.1984  -20.2613    0.0000 N   0  0  0  0  0  0  0  0  0  0  0  0
    1.7709  -11.2495    0.0000 N   0  0  0  0  0  0  0  0  0  0  0  0
    2.4217   -9.8980    0.0000 C   0  0  0  0  0  0  0  0  0  0  0  0
    3.9175   -9.7859    0.0000 O   0  0  0  0  0  0  0  0  0  0  0  0
    1.5768   -8.6587    0.0000 C   0  0  0  0  0  0  0  0  0  0  0  0
    0.0810   -8.7708    0.0000 C   0  0  0  0  0  0  0  0  0  0  0  0
   -0.5699  -10.1222    0.0000 C   0  0  0  0  0  0  0  0  0  0  0  0
   -2.0657  -10.2343    0.0000 C   0  0  0  0  0  0  0  0  0  0  0  0
   -2.7165  -11.5858    0.0000 N   0  0  0  0  0  0  0  0  0  0  0  0
    2.2276   -7.3072    0.0000 N   0  0  0  0  0  0  0  0  0  0  0  0
    3.7234   -7.1951    0.0000 C   0  0  0  0  0  0  0  0  0  0  0  0
    4.5684   -8.4345    0.0000 O   0  0  0  0  0  0  0  0  0  0  0  0
    4.3742   -5.8437    0.0000 C   0  0  0  0  0  0  0  0  0  0  0  0
    3.1041   -5.0456    0.0000 C   0  0  0  0  0  0  0  0  0  0  0  0
    2.0435   -3.9849    0.0000 N   0  0  0  0  0  0  0  0  0  0  0  0
    1.2454   -2.7149    0.0000 C   0  0  0  0  0  0  0  0  0  0  0  0
   -0.1060   -3.3657    0.0000 O   0  0  0  0  0  0  0  0  0  0  0  0
    0.7500   -1.2990    0.0000 C   0  0  0  0  0  0  0  0  0  0  0  0
    1.5000    0.0000    0.0000 C   0  0  0  0  0  0  0  0  0  0  0  0
    0.7500    1.2990    0.0000 C   0  0  0  0  0  0  0  0  0  0  0  0
   -0.7500    1.2990    0.0000 C   0  0  0  0  0  0  0  0  0  0  0  0
   -1.5000    0.0000    0.0000 C   0  0  0  0  0  0  0  0  0  0  0  0
   -0.7500   -1.2990    0.0000 C   0  0  0  0  0  0  0  0  0  0  0  0
   -2.7514    0.8271    0.0000 C   0  0  0  0  0  0  0  0  0  0  0  0
   -3.7181   -0.3198    0.0000 O   0  0  0  0  0  0  0  0  0  0  0  0
   -3.7782    1.9205    0.0000 N   0  0  0  0  0  0  0  0  0  0  0  0
   -4.5253    3.2212    0.0000 C   0  0  0  0  0  0  0  0  0  0  0  0
   -5.9040    2.6302    0.0000 C   0  0  0  0  0  0  0  0  0  0  0  0
   -6.0815    1.1408    0.0000 C   0  0  0  0  0  0  0  0  0  0  0  0
   -4.8803    0.2423    0.0000 C   0  0  0  0  0  0  0  0  0  0  0  0
   -5.0578   -1.2471    0.0000 C   0  0  0  0  0  0  0  0  0  0  0  0
   -6.4365   -1.8381    0.0000 C   0  0  0  0  0  0  0  0  0  0  0  0
   -6.6140   -3.3276    0.0000 C   0  0  0  0  0  0  0  0  0  0  0  0
   -7.9927   -3.9186    0.0000 C   0  0  0  0  0  0  0  0  0  0  0  0
   -9.1939   -3.0201    0.0000 C   0  0  0  0  0  0  0  0  0  0  0  0
   -9.0163   -1.5307    0.0000 C   0  0  0  0  0  0  0  0  0  0  0  0
   -7.6377   -0.9397    0.0000 C   0  0  0  0  0  0  0  0  0  0  0  0
   -7.4602    0.5498    0.0000 C   0  0  0  0  0  0  0  0  0  0  0  0
   -4.9522    4.6592    0.0000 C   0  0  0  0  0  0  0  0  0  0  0  0
   -6.4300    4.4021    0.0000 O   0  0  0  0  0  0  0  0  0  0  0  0
   -5.0361    6.1568    0.0000 N   0  0  0  0  0  0  0  0  0  0  0  0
   -4.7722    7.6335    0.0000 C   0  0  0  0  0  0  0  0  0  0  0  0
   -6.2082    8.0669    0.0000 C   0  0  0  0  0  0  0  0  0  0  0  0
   -7.3016    7.0400    0.0000 C   0  0  0  0  0  0  0  0  0  0  0  0
   -8.7376    7.4735    0.0000 N   0  0  0  0  0  0  0  0  0  0  0  0
   -6.9590    5.5797    0.0000 O   0  0  0  0  0  0  0  0  0  0  0  0
   -4.1750    9.0094    0.0000 C   0  0  0  0  0  0  0  0  0  0  0  0
   -5.4723    9.7624    0.0000 O   0  0  0  0  0  0  0  0  0  0  0  0
   -3.2765   10.2106    0.0000 N   0  0  0  0  0  0  0  0  0  0  0  0
   -2.1253   11.1722    0.0000 C   0  0  0  0  0  0  0  0  0  0  0  0
   -2.9467   12.4273    0.0000 C   0  0  0  0  0  0  0  0  0  0  0  0
   -4.4444   12.3434    0.0000 C   0  0  0  0  0  0  0  0  0  0  0  0
   -5.2658   13.5985    0.0000 N   0  0  0  0  0  0  0  0  0  0  0  0
   -5.1206   11.0045    0.0000 O   0  0  0  0  0  0  0  0  0  0  0  0
   -0.7833   11.8423    0.0000 C   0  0  0  0  0  0  0  0  0  0  0  0
   -1.2931   13.2530    0.0000 O   0  0  0  0  0  0  0  0  0  0  0  0
    0.6770   12.1849    0.0000 N   0  0  0  0  0  0  0  0  0  0  0  0
    2.1770   12.1815    0.0000 C   0  0  0  0  0  0  0  0  0  0  0  0
    2.3546   13.6710    0.0000 C   0  0  0  0  0  0  0  0  0  0  0  0
    1.1534   14.5694    0.0000 C   0  0  0  0  0  0  0  0  0  0  0  0
   -0.2253   13.9785    0.0000 C   0  0  0  0  0  0  0  0  0  0  0  0
   -1.4264   14.8769    0.0000 C   0  0  0  0  0  0  0  0  0  0  0  0
   -1.2489   16.3664    0.0000 C   0  0  0  0  0  0  0  0  0  0  0  0
   -2.4501   17.2648    0.0000 C   0  0  0  0  0  0  0  0  0  0  0  0
   -2.2725   18.7543    0.0000 C   0  0  0  0  0  0  0  0  0  0  0  0
   -0.8939   19.3453    0.0000 C   0  0  0  0  0  0  0  0  0  0  0  0
    0.3073   18.4468    0.0000 C   0  0  0  0  0  0  0  0  0  0  0  0
    0.1298   16.9574    0.0000 C   0  0  0  0  0  0  0  0  0  0  0  0
    1.3309   16.0589    0.0000 C   0  0  0  0  0  0  0  0  0  0  0  0
    3.6358   11.8323    0.0000 C   0  0  0  0  0  0  0  0  0  0  0  0
    4.1520   13.2407    0.0000 O   0  0  0  0  0  0  0  0  0  0  0  0
    4.9747   11.1561    0.0000 N   0  0  0  0  0  0  0  0  0  0  0  0
    6.1216   10.1893    0.0000 C   0  0  0  0  0  0  0  0  0  0  0  0
    7.2150   11.2162    0.0000 C   0  0  0  0  0  0  0  0  0  0  0  0
    8.6510   10.7827    0.0000 C   0  0  0  0  0  0  0  0  0  0  0  0
    9.7444   11.8096    0.0000 C   0  0  0  0  0  0  0  0  0  0  0  0
    9.4018   13.2699    0.0000 C   0  0  0  0  0  0  0  0  0  0  0  0
    7.9658   13.7034    0.0000 C   0  0  0  0  0  0  0  0  0  0  0  0
    6.8724   12.6765    0.0000 C   0  0  0  0  0  0  0  0  0  0  0  0
    7.0146    8.9841    0.0000 C   0  0  0  0  0  0  0  0  0  0  0  0
    8.3154    9.7311    0.0000 O   0  0  0  0  0  0  0  0  0  0  0  0
    7.6056    7.6054    0.0000 N   0  0  0  0  0  0  0  0  0  0  0  0
    8.7712    6.7221    0.0000 C   0  0  0  0  0  0  0  0  0  0  0  0
    7.2806    6.1901    0.0000 C   0  0  0  0  0  0  0  0  0  0  0  0
    5.9458    6.0397    0.0000 C   0  0  0  0  0  0  0  0  0  0  0  0
    4.6779    5.5960    0.0000 C   0  0  0  0  0  0  0  0  0  0  0  0
    3.5406    4.8814    0.0000 C   0  0  0  0  0  0  0  0  0  0  0  0
    2.5907    3.9316    0.0000 N   0  0  0  0  0  0  0  0  0  0  0  0
    1.5931    2.4904    0.0000 C   0  0  0  0  0  0  0  0  0  0  0  0
   -0.1060    3.7487    0.0000 O   0  0  0  0  0  0  0  0  0  0  0  0
   10.1870    6.2267    0.0000 C   0  0  0  0  0  0  0  0  0  0  0  0
   10.8378    7.5782    0.0000 O   0  0  0  0  0  0  0  0  0  0  0  0
   11.4571    5.4287    0.0000 N   0  0  0  0  0  0  0  0  0  0  0  0
   12.5177    4.3680    0.0000 C   0  0  0  0  0  0  0  0  0  0  0  0
   13.6905    5.3032    0.0000 C   0  0  0  0  0  0  0  0  0  0  0  0
   15.0868    4.7552    0.0000 C   0  0  0  0  0  0  0  0  0  0  0  0
   15.3104    3.2720    0.0000 C   0  0  0  0  0  0  0  0  0  0  0  0
   16.7067    2.7240    0.0000 C   0  0  0  0  0  0  0  0  0  0  0  0
   17.8794    3.6592    0.0000 C   0  0  0  0  0  0  0  0  0  0  0  0
   17.6559    5.1425    0.0000 C   0  0  0  0  0  0  0  0  0  0  0  0
   16.2596    5.6905    0.0000 C   0  0  0  0  0  0  0  0  0  0  0  0
   13.3158    3.0979    0.0000 C   0  0  0  0  0  0  0  0  0  0  0  0
   14.6672    3.7487    0.0000 O   0  0  0  0  0  0  0  0  0  0  0  0
   13.8112    1.6821    0.0000 N   0  0  0  0  0  0  0  0  0  0  0  0
   13.9792    0.1915    0.0000 C   0  0  0  0  0  0  0  0  0  0  0  0
   15.4792    0.1915    0.0000 C   0  0  0  0  0  0  0  0  0  0  0  0
   16.2292   -1.1075    0.0000 C   0  0  0  0  0  0  0  0  0  0  0  0
   17.7292   -1.1075    0.0000 C   0  0  0  0  0  0  0  0  0  0  0  0
   18.4792   -2.4065    0.0000 N   0  0  0  0  0  0  0  0  0  0  0  0
   18.4792    0.1915    0.0000 O   0  0  0  0  0  0  0  0  0  0  0  0
   13.8112   -1.2990    0.0000 C   0  0  0  0  0  0  0  0  0  0  0  0
   15.2736   -1.6328    0.0000 O   0  0  0  0  0  0  0  0  0  0  0  0
   13.3158   -2.7149    0.0000 N   0  0  0  0  0  0  0  0  0  0  0  0
   12.5177   -3.9849    0.0000 C   0  0  0  0  0  0  0  0  0  0  0  0
   13.6905   -4.9202    0.0000 C   0  0  0  0  0  0  0  0  0  0  0  0
   13.4669   -6.4034    0.0000 C   0  0  0  0  0  0  0  0  0  0  0  0
   14.6397   -7.3387    0.0000 C   0  0  0  0  0  0  0  0  0  0  0  0
   14.4161   -8.8219    0.0000 N   0  0  0  0  0  0  0  0  0  0  0  0
   15.5889   -9.7571    0.0000 C   0  0  0  0  0  0  0  0  0  0  0  0
   16.9852   -9.2091    0.0000 N   0  0  0  0  0  0  0  0  0  0  0  0
   15.3653  -11.2404    0.0000 N   0  0  0  0  0  0  0  0  0  0  0  0
   11.4571   -5.0456    0.0000 C   0  0  0  0  0  0  0  0  0  0  0  0
   12.3923   -6.2184    0.0000 O   0  0  0  0  0  0  0  0  0  0  0  0
   10.1870   -5.8437    0.0000 N   0  0  0  0  0  0  0  0  0  0  0  0
    8.7712   -6.3391    0.0000 C   0  0  0  0  0  0  0  0  0  0  0  0
    9.1050   -7.8015    0.0000 C   0  0  0  0  0  0  0  0  0  0  0  0
    8.0054   -8.8217    0.0000 C   0  0  0  0  0  0  0  0  0  0  0  0
    8.3392  -10.2841    0.0000 C   0  0  0  0  0  0  0  0  0  0  0  0
    7.2396  -11.3044    0.0000 N   0  0  0  0  0  0  0  0  0  0  0  0
    7.5734  -12.7668    0.0000 C   0  0  0  0  0  0  0  0  0  0  0  0
    8.3693  -12.8104    0.0000 N   0  0  0  0  0  0  0  0  0  0  0  0
    6.7533  -14.0228    0.0000 N   0  0  0  0  0  0  0  0  0  0  0  0
    7.2806   -6.5070    0.0000 C   0  0  0  0  0  0  0  0  0  0  0  0
    7.2806   -8.0070    0.0000 O   0  0  0  0  0  0  0  0  0  0  0  0
    5.7900   -6.3391    0.0000 N   0  0  0  0  0  0  0  0  0  0  0  0
    8.4050   -9.4496    0.0000 C   0  0  0  0  0  0  0  0  0  0  0  0
    9.3635   -8.2958    0.0000 N   0  0  0  0  0  0  0  0  0  0  0  0
    6.9092   -9.5617    0.0000 O   0  0  0  0  0  0  0  0  0  0  0  0
  2  1  1  1
  2  3  1  0
  3  4  1  0
  4  5  2  0
  4  6  1  0
  6  7  1  6
  7  8  1  0
  8  9  2  0
  9 10  1  0
 10 11  2  0
 11 12  1  0
 12 13  2  0
  6 14  1  0
 14 15  1  0
 15 16  2  0
 15 17  1  0
 17 18  1  1
 18 19  1  0
 19 20  1  0
 20 21  1  0
 21 22  1  0
 22 23  2  0
 22 24  1  0
 17 25  1  0
 25 26  1  0
 26 27  2  0
 26 28  1  0
 28 29  1  6
 29 30  1  0
 30 31  1  0
 31 32  1  0
 28 33  1  0
 33 34  1  0
 34 35  2  0
 36 34  1  6
 36 37  1  0
 37 38  1  0
 38 39  1  0
 39 40  2  0
 39 41  1  0
 41 42  2  0
 42 43  1  0
 43 44  2  0
 44 45  1  0
 45 46  2  0
 45 47  1  0
 47 48  2  0
 47 49  1  0
 49 50  1  0
 50 51  1  6
 51 52  1  0
 52 53  2  0
 53 54  1  0
 54 55  2  0
 55 56  1  0
 56 57  2  0
 57 58  1  0
 58 59  2  0
 59 60  1  0
 60 61  2  0
 50 62  1  0
 62 63  2  0
 62 64  1  0
 64 65  1  0
 65 66  1  1
 66 67  1  0
 67 68  1  1
 67 69  1  0
 65 70  1  0
 70 71  2  0
 70 72  1  0
 72 73  1  0
 73 74  1  1
 74 75  1  0
 75 76  1  0
 75 77  2  0
 73 78  1  0
 78 79  2  0
 78 80  1  0
 80 81  1  0
 81 82  1  6
 82 83  1  0
 83 84  2  0
 84 85  1  0
 85 86  2  0
 86 87  1  0
 87 88  2  0
 88 89  1  0
 89 90  2  0
 90 91  1  0
 91 92  2  0
 81 93  1  0
 93 94  2  0
 93 95  1  0
 95 96  1  0
 96 97  1  1
 97 98  2  0
 98 99  1  0
 99100  2  0
100101  1  0
101102  2  0
 96103  1  0
103104  2  0
103105  1  0
106105  1  6
106107  1  0
107108  1  0
108109  1  0
109110  1  0
110111  1  0
111112  1  0
112113  2  0
106114  1  0
114115  2  0
114116  1  0
116117  1  0
117118  1  6
118119  1  0
119120  2  0
120121  1  0
121122  2  0
122123  1  0
123124  2  0
117125  1  0
125126  2  0
125127  1  0
127128  1  0
128129  1  6
129130  1  0
130131  1  0
131132  1  0
131133  2  0
128134  1  0
134135  2  0
134136  1  0
136137  1  0
137138  1  6
138139  1  0
139140  1  0
140141  1  0
141142  1  0
142143  2  0
142144  1  0
137145  1  0
145146  2  0
145147  1  0
147148  1  0
148149  1  1
149150  1  0
150151  1  0
151152  1  0
152153  1  0
153154  2  0
153155  1  0
148156  1  0
156157  2  0
156158  1  0
  2159  1  0
159160  1  0
159161  2  0
 13  8  1  0
158 36  1  0
 46 41  1  0
 61 52  1  0
 92 83  1  0
102 97  1  0
124119  1  0
112 43  1  0
 60 55  1  0
 91 86  1  0
M  END
>  <molecule_chembl_id>  (133) 
CHEMBL4862260

>  <canonical_smiles>  (133) 
C[C@@H](NC(=O)[C@H](Cc1ccccc1)NC(=O)[C@@H](CCCNC(=N)N)NC(=O)[C@H](CCCN)NC(=O)[C@@H]1CNC(=O)c2cc3cc(c2)C(=O)N[C@H](Cc2ccc4ccccc4c2)C(=O)N[C@@H](C[C@H](N)O)C(=O)N[C@@H](CC(N)=O)C(=O)N[C@H](Cc2ccc4ccccc4c2)C(=O)N[C@@H](c2ccccc2)C(=O)N[C@@H](CCCCNC3=O)C(=O)N[C@H](Cc2ccccc2)C(=O)N[C@H](CCC(N)=O)C(=O)N[C@H](CCCNC(=N)N)C(=O)N[C@@H](CCCNC(=N)N)C(=O)N1)C(N)=O

>  <pchembl_value_mean>  (133) 
5.92

>  <inchi>  (133) 
InChI=1S/C109H141N31O21/c1-59(89(114)144)126-99(154)78(49-60-21-5-2-6-22-60)134-96(151)75(34-19-45-123-108(117)118)127-93(148)73(32-17-42-110)130-105(160)84-58-125-91(146)70-53-69-54-71(55-70)92(147)133-80(51-62-36-38-64-25-11-13-29-67(64)47-62)101(156)137-83(57-87(113)143)103(158)138-82(56-86(112)142)102(157)136-81(52-63-37-39-65-26-12-14-30-68(65)48-63)104(159)140-88(66-27-9-4-10-28-66)106(161)132-72(31-15-16-43-121-90(69)145)95(150)135-79(50-61-23-7-3-8-24-61)100(155)131-77(40-41-85(111)141)98(153)129-74(33-18-44-122-107(115)116)94(149)128-76(97(152)139-84)35-20-46-124-109(119)120/h2-14,21-30,36-39,47-48,53-55,59,72-84,87-88,143H,15-20,31-35,40-46,49-52,56-58,110,113H2,1H3,(H2,111,141)(H2,112,142)(H2,114,144)(H,121,145)(H,125,146)(H,126,154)(H,127,148)(H,128,149)(H,129,153)(H,130,160)(H,131,155)(H,132,161)(H,133,147)(H,134,151)(H,135,150)(H,136,157)(H,137,156)(H,138,158)(H,139,152)(H,140,159)(H4,115,116,122)(H4,117,118,123)(H4,119,120,124)/t59-,72+,73+,74-,75-,76+,77-,78+,79-,80-,81-,82+,83+,84+,87-,88+/m1/s1

$$$$

     RDKit          2D

158167  0  0  0  0  0  0  0  0999 V2000
   10.7457  -10.5769    0.0000 C   0  0  0  0  0  0  0  0  0  0  0  0
    9.2499  -10.6890    0.0000 C   0  0  0  0  0  0  0  0  0  0  0  0
    8.5991  -12.0404    0.0000 N   0  0  0  0  0  0  0  0  0  0  0  0
    7.1033  -12.1525    0.0000 C   0  0  0  0  0  0  0  0  0  0  0  0
    6.2583  -10.9132    0.0000 O   0  0  0  0  0  0  0  0  0  0  0  0
    6.4525  -13.5040    0.0000 C   0  0  0  0  0  0  0  0  0  0  0  0
    7.2975  -14.7434    0.0000 C   0  0  0  0  0  0  0  0  0  0  0  0
    8.7933  -14.6313    0.0000 C   0  0  0  0  0  0  0  0  0  0  0  0
    9.6382  -15.8706    0.0000 C   0  0  0  0  0  0  0  0  0  0  0  0
   11.1341  -15.7585    0.0000 C   0  0  0  0  0  0  0  0  0  0  0  0
   11.7849  -14.4071    0.0000 C   0  0  0  0  0  0  0  0  0  0  0  0
   10.9399  -13.1677    0.0000 C   0  0  0  0  0  0  0  0  0  0  0  0
    9.4441  -13.2798    0.0000 C   0  0  0  0  0  0  0  0  0  0  0  0
    4.9567  -13.6161    0.0000 N   0  0  0  0  0  0  0  0  0  0  0  0
    4.1117  -12.3767    0.0000 C   0  0  0  0  0  0  0  0  0  0  0  0
    4.7625  -11.0253    0.0000 O   0  0  0  0  0  0  0  0  0  0  0  0
    2.6159  -12.4888    0.0000 C   0  0  0  0  0  0  0  0  0  0  0  0
    1.9651  -13.8403    0.0000 C   0  0  0  0  0  0  0  0  0  0  0  0
    2.8100  -15.0796    0.0000 C   0  0  0  0  0  0  0  0  0  0  0  0
    2.1592  -16.4311    0.0000 C   0  0  0  0  0  0  0  0  0  0  0  0
    3.0042  -17.6705    0.0000 N   0  0  0  0  0  0  0  0  0  0  0  0
    2.3534  -19.0219    0.0000 C   0  0  0  0  0  0  0  0  0  0  0  0
    0.8576  -19.1340    0.0000 N   0  0  0  0  0  0  0  0  0  0  0  0
    3.1984  -20.2613    0.0000 N   0  0  0  0  0  0  0  0  0  0  0  0
    1.7709  -11.2495    0.0000 N   0  0  0  0  0  0  0  0  0  0  0  0
    2.4217   -9.8980    0.0000 C   0  0  0  0  0  0  0  0  0  0  0  0
    3.9175   -9.7859    0.0000 O   0  0  0  0  0  0  0  0  0  0  0  0
    1.5768   -8.6587    0.0000 C   0  0  0  0  0  0  0  0  0  0  0  0
    0.0810   -8.7708    0.0000 C   0  0  0  0  0  0  0  0  0  0  0  0
   -0.5699  -10.1222    0.0000 C   0  0  0  0  0  0  0  0  0  0  0  0
   -2.0657  -10.2343    0.0000 C   0  0  0  0  0  0  0  0  0  0  0  0
   -2.7165  -11.5858    0.0000 N   0  0  0  0  0  0  0  0  0  0  0  0
    2.2276   -7.3072    0.0000 N   0  0  0  0  0  0  0  0  0  0  0  0
    3.7234   -7.1951    0.0000 C   0  0  0  0  0  0  0  0  0  0  0  0
    4.5684   -8.4345    0.0000 O   0  0  0  0  0  0  0  0  0  0  0  0
    4.3742   -5.8437    0.0000 C   0  0  0  0  0  0  0  0  0  0  0  0
    3.1041   -5.0456    0.0000 C   0  0  0  0  0  0  0  0  0  0  0  0
    2.0435   -3.9849    0.0000 N   0  0  0  0  0  0  0  0  0  0  0  0
    1.2454   -2.7149    0.0000 C   0  0  0  0  0  0  0  0  0  0  0  0
   -0.1060   -3.3657    0.0000 O   0  0  0  0  0  0  0  0  0  0  0  0
    0.7500   -1.2990    0.0000 C   0  0  0  0  0  0  0  0  0  0  0  0
    1.5000    0.0000    0.0000 C   0  0  0  0  0  0  0  0  0  0  0  0
    0.7500    1.2990    0.0000 C   0  0  0  0  0  0  0  0  0  0  0  0
   -0.7500    1.2990    0.0000 C   0  0  0  0  0  0  0  0  0  0  0  0
   -1.5000    0.0000    0.0000 C   0  0  0  0  0  0  0  0  0  0  0  0
   -0.7500   -1.2990    0.0000 C   0  0  0  0  0  0  0  0  0  0  0  0
   -2.7514    0.8271    0.0000 C   0  0  0  0  0  0  0  0  0  0  0  0
   -3.7181   -0.3198    0.0000 O   0  0  0  0  0  0  0  0  0  0  0  0
   -3.7782    1.9205    0.0000 N   0  0  0  0  0  0  0  0  0  0  0  0
   -4.5253    3.2212    0.0000 C   0  0  0  0  0  0  0  0  0  0  0  0
   -5.9040    2.6302    0.0000 C   0  0  0  0  0  0  0  0  0  0  0  0
   -6.0815    1.1408    0.0000 C   0  0  0  0  0  0  0  0  0  0  0  0
   -4.8803    0.2423    0.0000 C   0  0  0  0  0  0  0  0  0  0  0  0
   -5.0578   -1.2471    0.0000 C   0  0  0  0  0  0  0  0  0  0  0  0
   -6.4365   -1.8381    0.0000 C   0  0  0  0  0  0  0  0  0  0  0  0
   -6.6140   -3.3276    0.0000 C   0  0  0  0  0  0  0  0  0  0  0  0
   -7.9927   -3.9186    0.0000 C   0  0  0  0  0  0  0  0  0  0  0  0
   -9.1939   -3.0201    0.0000 C   0  0  0  0  0  0  0  0  0  0  0  0
   -9.0163   -1.5307    0.0000 C   0  0  0  0  0  0  0  0  0  0  0  0
   -7.6377   -0.9397    0.0000 C   0  0  0  0  0  0  0  0  0  0  0  0
   -7.4602    0.5498    0.0000 C   0  0  0  0  0  0  0  0  0  0  0  0
   -4.9522    4.6592    0.0000 C   0  0  0  0  0  0  0  0  0  0  0  0
   -6.4300    4.4021    0.0000 O   0  0  0  0  0  0  0  0  0  0  0  0
   -5.0361    6.1568    0.0000 N   0  0  0  0  0  0  0  0  0  0  0  0
   -4.7722    7.6335    0.0000 C   0  0  0  0  0  0  0  0  0  0  0  0
   -6.2082    8.0669    0.0000 C   0  0  0  0  0  0  0  0  0  0  0  0
   -6.5509    9.5273    0.0000 O   0  0  0  0  0  0  0  0  0  0  0  0
   -4.1750    9.0094    0.0000 C   0  0  0  0  0  0  0  0  0  0  0  0
   -5.4723    9.7624    0.0000 O   0  0  0  0  0  0  0  0  0  0  0  0
   -3.2765   10.2106    0.0000 N   0  0  0  0  0  0  0  0  0  0  0  0
   -2.1253   11.1722    0.0000 C   0  0  0  0  0  0  0  0  0  0  0  0
   -2.9467   12.4273    0.0000 C   0  0  0  0  0  0  0  0  0  0  0  0
   -4.4444   12.3434    0.0000 C   0  0  0  0  0  0  0  0  0  0  0  0
   -5.2658   13.5985    0.0000 N   0  0  0  0  0  0  0  0  0  0  0  0
   -5.1206   11.0045    0.0000 O   0  0  0  0  0  0  0  0  0  0  0  0
   -0.7833   11.8423    0.0000 C   0  0  0  0  0  0  0  0  0  0  0  0
   -1.2931   13.2530    0.0000 O   0  0  0  0  0  0  0  0  0  0  0  0
    0.6770   12.1849    0.0000 N   0  0  0  0  0  0  0  0  0  0  0  0
    2.1770   12.1815    0.0000 C   0  0  0  0  0  0  0  0  0  0  0  0
    2.3546   13.6710    0.0000 C   0  0  0  0  0  0  0  0  0  0  0  0
    1.1534   14.5694    0.0000 C   0  0  0  0  0  0  0  0  0  0  0  0
   -0.2253   13.9785    0.0000 C   0  0  0  0  0  0  0  0  0  0  0  0
   -1.4264   14.8769    0.0000 C   0  0  0  0  0  0  0  0  0  0  0  0
   -1.2489   16.3664    0.0000 C   0  0  0  0  0  0  0  0  0  0  0  0
   -2.4501   17.2648    0.0000 C   0  0  0  0  0  0  0  0  0  0  0  0
   -2.2725   18.7543    0.0000 C   0  0  0  0  0  0  0  0  0  0  0  0
   -0.8939   19.3453    0.0000 C   0  0  0  0  0  0  0  0  0  0  0  0
    0.3073   18.4468    0.0000 C   0  0  0  0  0  0  0  0  0  0  0  0
    0.1298   16.9574    0.0000 C   0  0  0  0  0  0  0  0  0  0  0  0
    1.3309   16.0589    0.0000 C   0  0  0  0  0  0  0  0  0  0  0  0
    3.6358   11.8323    0.0000 C   0  0  0  0  0  0  0  0  0  0  0  0
    4.1520   13.2407    0.0000 O   0  0  0  0  0  0  0  0  0  0  0  0
    4.9747   11.1561    0.0000 N   0  0  0  0  0  0  0  0  0  0  0  0
    6.1216   10.1893    0.0000 C   0  0  0  0  0  0  0  0  0  0  0  0
    7.2150   11.2162    0.0000 C   0  0  0  0  0  0  0  0  0  0  0  0
    8.6510   10.7827    0.0000 C   0  0  0  0  0  0  0  0  0  0  0  0
    9.7444   11.8096    0.0000 C   0  0  0  0  0  0  0  0  0  0  0  0
    9.4018   13.2699    0.0000 C   0  0  0  0  0  0  0  0  0  0  0  0
    7.9658   13.7034    0.0000 C   0  0  0  0  0  0  0  0  0  0  0  0
    6.8724   12.6765    0.0000 C   0  0  0  0  0  0  0  0  0  0  0  0
    7.0146    8.9841    0.0000 C   0  0  0  0  0  0  0  0  0  0  0  0
    8.3154    9.7311    0.0000 O   0  0  0  0  0  0  0  0  0  0  0  0
    7.6056    7.6054    0.0000 N   0  0  0  0  0  0  0  0  0  0  0  0
    8.7712    6.7221    0.0000 C   0  0  0  0  0  0  0  0  0  0  0  0
    7.2806    6.1901    0.0000 C   0  0  0  0  0  0  0  0  0  0  0  0
    5.9458    6.0397    0.0000 C   0  0  0  0  0  0  0  0  0  0  0  0
    4.6779    5.5960    0.0000 C   0  0  0  0  0  0  0  0  0  0  0  0
    3.5406    4.8814    0.0000 C   0  0  0  0  0  0  0  0  0  0  0  0
    2.5907    3.9316    0.0000 N   0  0  0  0  0  0  0  0  0  0  0  0
    1.5931    2.4904    0.0000 C   0  0  0  0  0  0  0  0  0  0  0  0
   -0.1060    3.7487    0.0000 O   0  0  0  0  0  0  0  0  0  0  0  0
   10.1870    6.2267    0.0000 C   0  0  0  0  0  0  0  0  0  0  0  0
   10.8378    7.5782    0.0000 O   0  0  0  0  0  0  0  0  0  0  0  0
   11.4571    5.4287    0.0000 N   0  0  0  0  0  0  0  0  0  0  0  0
   12.5177    4.3680    0.0000 C   0  0  0  0  0  0  0  0  0  0  0  0
   13.6905    5.3032    0.0000 C   0  0  0  0  0  0  0  0  0  0  0  0
   15.0868    4.7552    0.0000 C   0  0  0  0  0  0  0  0  0  0  0  0
   15.3104    3.2720    0.0000 C   0  0  0  0  0  0  0  0  0  0  0  0
   16.7067    2.7240    0.0000 C   0  0  0  0  0  0  0  0  0  0  0  0
   17.8794    3.6592    0.0000 C   0  0  0  0  0  0  0  0  0  0  0  0
   17.6559    5.1425    0.0000 C   0  0  0  0  0  0  0  0  0  0  0  0
   16.2596    5.6905    0.0000 C   0  0  0  0  0  0  0  0  0  0  0  0
   13.3158    3.0979    0.0000 C   0  0  0  0  0  0  0  0  0  0  0  0
   14.6672    3.7487    0.0000 O   0  0  0  0  0  0  0  0  0  0  0  0
   13.8112    1.6821    0.0000 N   0  0  0  0  0  0  0  0  0  0  0  0
   13.9792    0.1915    0.0000 C   0  0  0  0  0  0  0  0  0  0  0  0
   15.4792    0.1915    0.0000 C   0  0  0  0  0  0  0  0  0  0  0  0
   16.2292   -1.1075    0.0000 C   0  0  0  0  0  0  0  0  0  0  0  0
   17.7292   -1.1075    0.0000 N   0  0  0  0  0  0  0  0  0  0  0  0
   15.7545   -2.2259    0.0000 O   0  0  0  0  0  0  0  0  0  0  0  0
   13.8112   -1.2990    0.0000 C   0  0  0  0  0  0  0  0  0  0  0  0
   14.9540   -1.7118    0.0000 O   0  0  0  0  0  0  0  0  0  0  0  0
   13.3158   -2.7149    0.0000 N   0  0  0  0  0  0  0  0  0  0  0  0
   12.5177   -3.9849    0.0000 C   0  0  0  0  0  0  0  0  0  0  0  0
   13.6905   -4.9202    0.0000 C   0  0  0  0  0  0  0  0  0  0  0  0
   13.4669   -6.4034    0.0000 C   0  0  0  0  0  0  0  0  0  0  0  0
   14.6397   -7.3387    0.0000 C   0  0  0  0  0  0  0  0  0  0  0  0
   14.4161   -8.8219    0.0000 N   0  0  0  0  0  0  0  0  0  0  0  0
   15.5889   -9.7571    0.0000 C   0  0  0  0  0  0  0  0  0  0  0  0
   16.9852   -9.2091    0.0000 N   0  0  0  0  0  0  0  0  0  0  0  0
   15.3653  -11.2404    0.0000 N   0  0  0  0  0  0  0  0  0  0  0  0
   11.4571   -5.0456    0.0000 C   0  0  0  0  0  0  0  0  0  0  0  0
   12.3923   -6.2184    0.0000 O   0  0  0  0  0  0  0  0  0  0  0  0
   10.1870   -5.8437    0.0000 N   0  0  0  0  0  0  0  0  0  0  0  0
    8.7712   -6.3391    0.0000 C   0  0  0  0  0  0  0  0  0  0  0  0
    9.1050   -7.8015    0.0000 C   0  0  0  0  0  0  0  0  0  0  0  0
    8.0054   -8.8217    0.0000 C   0  0  0  0  0  0  0  0  0  0  0  0
    8.3392  -10.2841    0.0000 C   0  0  0  0  0  0  0  0  0  0  0  0
    7.2396  -11.3044    0.0000 N   0  0  0  0  0  0  0  0  0  0  0  0
    7.5734  -12.7668    0.0000 C   0  0  0  0  0  0  0  0  0  0  0  0
    8.3693  -12.8104    0.0000 N   0  0  0  0  0  0  0  0  0  0  0  0
    6.7533  -14.0228    0.0000 N   0  0  0  0  0  0  0  0  0  0  0  0
    7.2806   -6.5070    0.0000 C   0  0  0  0  0  0  0  0  0  0  0  0
    7.2806   -8.0070    0.0000 O   0  0  0  0  0  0  0  0  0  0  0  0
    5.7900   -6.3391    0.0000 N   0  0  0  0  0  0  0  0  0  0  0  0
    8.4050   -9.4496    0.0000 C   0  0  0  0  0  0  0  0  0  0  0  0
    9.3635   -8.2958    0.0000 N   0  0  0  0  0  0  0  0  0  0  0  0
    6.9092   -9.5617    0.0000 O   0  0  0  0  0  0  0  0  0  0  0  0
  2  1  1  1
  2  3  1  0
  3  4  1  0
  4  5  2  0
  4  6  1  0
  6  7  1  6
  7  8  1  0
  8  9  2  0
  9 10  1  0
 10 11  2  0
 11 12  1  0
 12 13  2  0
  6 14  1  0
 14 15  1  0
 15 16  2  0
 15 17  1  0
 17 18  1  1
 18 19  1  0
 19 20  1  0
 20 21  1  0
 21 22  1  0
 22 23  2  0
 22 24  1  0
 17 25  1  0
 25 26  1  0
 26 27  2  0
 26 28  1  0
 28 29  1  6
 29 30  1  0
 30 31  1  0
 31 32  1  0
 28 33  1  0
 33 34  1  0
 34 35  2  0
 36 34  1  6
 36 37  1  0
 37 38  1  0
 38 39  1  0
 39 40  2  0
 39 41  1  0
 41 42  2  0
 42 43  1  0
 43 44  2  0
 44 45  1  0
 45 46  2  0
 45 47  1  0
 47 48  2  0
 47 49  1  0
 49 50  1  0
 50 51  1  6
 51 52  1  0
 52 53  2  0
 53 54  1  0
 54 55  2  0
 55 56  1  0
 56 57  2  0
 57 58  1  0
 58 59  2  0
 59 60  1  0
 60 61  2  0
 50 62  1  0
 62 63  2  0
 62 64  1  0
 64 65  1  0
 65 66  1  1
 66 67  1  0
 65 68  1  0
 68 69  2  0
 68 70  1  0
 70 71  1  0
 71 72  1  1
 72 73  1  0
 73 74  1  0
 73 75  2  0
 71 76  1  0
 76 77  2  0
 76 78  1  0
 78 79  1  0
 79 80  1  6
 80 81  1  0
 81 82  2  0
 82 83  1  0
 83 84  2  0
 84 85  1  0
 85 86  2  0
 86 87  1  0
 87 88  2  0
 88 89  1  0
 89 90  2  0
 79 91  1  0
 91 92  2  0
 91 93  1  0
 93 94  1  0
 94 95  1  1
 95 96  2  0
 96 97  1  0
 97 98  2  0
 98 99  1  0
 99100  2  0
 94101  1  0
101102  2  0
101103  1  0
104103  1  6
104105  1  0
105106  1  0
106107  1  0
107108  1  0
108109  1  0
109110  1  0
110111  2  0
104112  1  0
112113  2  0
112114  1  0
114115  1  0
115116  1  6
116117  1  0
117118  2  0
118119  1  0
119120  2  0
120121  1  0
121122  2  0
115123  1  0
123124  2  0
123125  1  0
125126  1  0
126127  1  6
127128  1  0
128129  1  0
128130  2  0
126131  1  0
131132  2  0
131133  1  0
133134  1  0
134135  1  6
135136  1  0
136137  1  0
137138  1  0
138139  1  0
139140  2  0
139141  1  0
134142  1  0
142143  2  0
142144  1  0
144145  1  0
145146  1  1
146147  1  0
147148  1  0
148149  1  0
149150  1  0
150151  2  0
150152  1  0
145153  1  0
153154  2  0
153155  1  0
  2156  1  0
156157  1  0
156158  2  0
 13  8  1  0
155 36  1  0
 46 41  1  0
 61 52  1  0
 90 81  1  0
100 95  1  0
122117  1  0
110 43  1  0
 60 55  1  0
 89 84  1  0
M  END
>  <molecule_chembl_id>  (134) 
CHEMBL4860356

>  <canonical_smiles>  (134) 
C[C@@H](NC(=O)[C@H](Cc1ccccc1)NC(=O)[C@@H](CCCNC(=N)N)NC(=O)[C@H](CCCN)NC(=O)[C@@H]1CNC(=O)c2cc3cc(c2)C(=O)N[C@H](Cc2ccc4ccccc4c2)C(=O)N[C@@H](CO)C(=O)N[C@@H](CC(N)=O)C(=O)N[C@H](Cc2ccc4ccccc4c2)C(=O)N[C@@H](c2ccccc2)C(=O)N[C@@H](CCCCNC3=O)C(=O)N[C@H](Cc2ccccc2)C(=O)N[C@H](CC(N)=O)C(=O)N[C@H](CCCNC(=N)N)C(=O)N[C@@H](CCCNC(=N)N)C(=O)N1)C(N)=O

>  <pchembl_value_mean>  (134) 
5.92

>  <inchi>  (134) 
InChI=1S/C107H136N30O21/c1-58(87(111)141)123-96(150)76(47-59-21-5-2-6-22-59)130-94(148)74(34-19-43-120-106(114)115)124-91(145)72(32-17-40-108)127-102(156)82-56-122-89(143)69-51-68-52-70(53-69)90(144)129-78(49-61-36-38-63-25-11-13-29-66(63)45-61)98(152)136-83(57-138)103(157)134-81(55-85(110)140)100(154)132-79(50-62-37-39-64-26-12-14-30-67(64)46-62)101(155)137-86(65-27-9-4-10-28-65)104(158)128-71(31-15-16-41-118-88(68)142)93(147)131-77(48-60-23-7-3-8-24-60)97(151)133-80(54-84(109)139)99(153)126-73(33-18-42-119-105(112)113)92(146)125-75(95(149)135-82)35-20-44-121-107(116)117/h2-14,21-30,36-39,45-46,51-53,58,71-83,86,138H,15-20,31-35,40-44,47-50,54-57,108H2,1H3,(H2,109,139)(H2,110,140)(H2,111,141)(H,118,142)(H,122,143)(H,123,150)(H,124,145)(H,125,146)(H,126,153)(H,127,156)(H,128,158)(H,129,144)(H,130,148)(H,131,147)(H,132,154)(H,133,151)(H,134,157)(H,135,149)(H,136,152)(H,137,155)(H4,112,113,119)(H4,114,115,120)(H4,116,117,121)/t58-,71+,72+,73-,74-,75+,76+,77-,78-,79-,80-,81+,82+,83+,86+/m1/s1

$$$$

     RDKit          2D

 41 48  0  0  0  0  0  0  0  0999 V2000
    3.7500   -1.2990    0.0000 C   0  0  0  0  0  0  0  0  0  0  0  0
    3.0000    0.0000    0.0000 O   0  0  0  0  0  0  0  0  0  0  0  0
    1.5000    0.0000    0.0000 C   0  0  0  0  0  0  0  0  0  0  0  0
    0.7500   -1.2990    0.0000 C   0  0  0  0  0  0  0  0  0  0  0  0
   -0.7500   -1.2990    0.0000 C   0  0  0  0  0  0  0  0  0  0  0  0
   -1.5000    0.0000    0.0000 C   0  0  0  0  0  0  0  0  0  0  0  0
   -0.7500    1.2990    0.0000 C   0  0  0  0  0  0  0  0  0  0  0  0
   -1.5000    2.5981    0.0000 C   0  0  0  0  0  0  0  0  0  0  0  0
   -0.7500    3.8971    0.0000 C   0  0  0  0  0  0  0  0  0  0  0  0
    0.7500    3.8971    0.0000 C   0  0  0  0  0  0  0  0  0  0  0  0
    1.5000    2.5981    0.0000 C   0  0  0  0  0  0  0  0  0  0  0  0
    3.0000    2.5981    0.0000 C   0  0  0  0  0  0  0  0  0  0  0  0
    3.7500    1.2990    0.0000 N   0  0  0  0  0  0  0  0  0  0  0  0
    5.2500    1.2990    0.0000 C   0  0  0  0  0  0  0  0  0  0  0  0
    6.0000    2.5981    0.0000 C   0  0  0  0  0  0  0  0  0  0  0  0
    7.5000    2.5981    0.0000 C   0  0  0  0  0  0  0  0  0  0  0  0
    8.2500    1.2990    0.0000 N   0  0  0  0  0  0  0  0  0  0  0  0
    9.7500    1.2990    0.0000 C   0  0  0  0  0  0  0  0  0  0  0  0
   10.5000   -0.0000    0.0000 C   0  0  0  0  0  0  0  0  0  0  0  0
   10.8119   -1.4672    0.0000 C   0  0  0  0  0  0  0  0  0  0  0  0
    9.5128   -2.2172    0.0000 C   0  0  0  0  0  0  0  0  0  0  0  0
    8.3981   -1.2135    0.0000 C   0  0  0  0  0  0  0  0  0  0  0  0
    7.5000   -0.0000    0.0000 C   0  0  0  0  0  0  0  0  0  0  0  0
    9.0082    0.1568    0.0000 N   0  0  0  0  0  0  0  0  0  0  0  0
    8.2500    3.8971    0.0000 N   0  0  0  0  0  0  0  0  0  0  0  0
    7.5000    5.1962    0.0000 C   0  0  0  0  0  0  0  0  0  0  0  0
    8.2500    6.4952    0.0000 O   0  0  0  0  0  0  0  0  0  0  0  0
    9.7500    6.4952    0.0000 C   0  0  0  0  0  0  0  0  0  0  0  0
   10.5000    7.7942    0.0000 C   0  0  0  0  0  0  0  0  0  0  0  0
    9.0328    8.1061    0.0000 C   0  0  0  0  0  0  0  0  0  0  0  0
    8.8760    9.5979    0.0000 C   0  0  0  0  0  0  0  0  0  0  0  0
   10.2463   10.2080    0.0000 C   0  0  0  0  0  0  0  0  0  0  0  0
   11.2500    9.0933    0.0000 N   0  0  0  0  0  0  0  0  0  0  0  0
   12.7172    8.7814    0.0000 C   0  0  0  0  0  0  0  0  0  0  0  0
   12.8740    7.2896    0.0000 C   0  0  0  0  0  0  0  0  0  0  0  0
   11.5037    6.6795    0.0000 C   0  0  0  0  0  0  0  0  0  0  0  0
    6.0000    5.1962    0.0000 N   0  0  0  0  0  0  0  0  0  0  0  0
    5.2500    3.8971    0.0000 C   0  0  0  0  0  0  0  0  0  0  0  0
    3.7500    3.8971    0.0000 C   0  0  0  0  0  0  0  0  0  0  0  0
    3.0000    5.1962    0.0000 F   0  0  0  0  0  0  0  0  0  0  0  0
    0.7500    1.2990    0.0000 C   0  0  0  0  0  0  0  0  0  0  0  0
  1  2  1  0
  2  3  1  0
  3  4  2  0
  4  5  1  0
  5  6  2  0
  6  7  1  0
  7  8  2  0
  8  9  1  0
  9 10  2  0
 10 11  1  0
 11 12  1  0
 12 13  2  0
 13 14  1  0
 14 15  2  0
 15 16  1  0
 16 17  1  0
 17 18  1  0
 19 18  1  1
 19 20  1  0
 20 21  1  0
 22 21  1  1
 22 23  1  0
 22 24  1  0
 16 25  2  0
 25 26  1  0
 26 27  1  0
 27 28  1  0
 28 29  1  0
 29 30  1  0
 30 31  1  0
 31 32  1  0
 32 33  1  0
 33 34  1  0
 34 35  1  0
 35 36  1  0
 26 37  2  0
 37 38  1  0
 38 39  2  0
 39 40  1  0
 11 41  2  0
 41  3  1  0
 41  7  1  0
 39 12  1  0
 38 15  1  0
 23 17  1  0
 33 29  1  0
 24 19  1  0
 36 29  1  0
M  END
>  <molecule_chembl_id>  (135) 
CHEMBL5091903

>  <canonical_smiles>  (135) 
COc1cccc2cccc(-c3ncc4c(N5C[C@H]6CC[C@@H](C5)N6)nc(OCC56CCCN5CCC6)nc4c3F)c12

>  <pchembl_value_mean>  (135) 
5.92

>  <inchi>  (135) 
InChI=1S/C32H35FN6O2/c1-40-25-9-3-7-20-6-2-8-23(26(20)25)28-27(33)29-24(16-34-28)30(38-17-21-10-11-22(18-38)35-21)37-31(36-29)41-19-32-12-4-14-39(32)15-5-13-32/h2-3,6-9,16,21-22,35H,4-5,10-15,17-19H2,1H3/t21-,22+

$$$$

     RDKit          2D

100104  0  0  0  0  0  0  0  0999 V2000
   -9.8520   -6.4245    0.0000 C   0  0  0  0  0  0  0  0  0  0  0  0
   -9.2945   -7.8170    0.0000 C   0  0  0  0  0  0  0  0  0  0  0  0
  -10.2217   -8.9961    0.0000 C   0  0  0  0  0  0  0  0  0  0  0  0
   -7.8098   -8.0305    0.0000 C   0  0  0  0  0  0  0  0  0  0  0  0
   -7.8811   -9.5288    0.0000 N   0  0  0  0  0  0  0  0  0  0  0  0
   -7.6677  -11.0136    0.0000 C   0  0  0  0  0  0  0  0  0  0  0  0
   -9.1254  -11.3672    0.0000 O   0  0  0  0  0  0  0  0  0  0  0  0
   -7.1771  -12.4311    0.0000 C   0  0  0  0  0  0  0  0  0  0  0  0
   -8.5415  -13.0542    0.0000 C   0  0  0  0  0  0  0  0  0  0  0  0
   -8.6841  -14.5474    0.0000 C   0  0  0  0  0  0  0  0  0  0  0  0
  -10.0486  -15.1705    0.0000 N   0  0  0  0  0  0  0  0  0  0  0  0
   -7.4622  -15.4175    0.0000 O   0  0  0  0  0  0  0  0  0  0  0  0
   -6.4271  -13.7301    0.0000 N   0  0  0  0  0  0  0  0  0  0  0  0
   -5.4448  -14.8637    0.0000 C   0  0  0  0  0  0  0  0  0  0  0  0
   -6.4799  -15.9493    0.0000 O   0  0  0  0  0  0  0  0  0  0  0  0
   -4.2657  -15.7910    0.0000 C   0  0  0  0  0  0  0  0  0  0  0  0
   -5.0767  -17.0528    0.0000 C   0  0  0  0  0  0  0  0  0  0  0  0
   -6.5750  -16.9815    0.0000 C   0  0  0  0  0  0  0  0  0  0  0  0
   -7.3859  -18.2433    0.0000 C   0  0  0  0  0  0  0  0  0  0  0  0
   -8.8842  -18.1720    0.0000 N   0  0  0  0  0  0  0  0  0  0  0  0
   -9.6952  -19.4338    0.0000 C   0  0  0  0  0  0  0  0  0  0  0  0
   -9.0078  -20.7671    0.0000 N   0  0  0  0  0  0  0  0  0  0  0  0
  -11.1935  -19.3625    0.0000 N   0  0  0  0  0  0  0  0  0  0  0  0
   -2.9324  -16.4783    0.0000 N   0  0  0  0  0  0  0  0  0  0  0  0
   -1.4932  -16.9009    0.0000 C   0  0  0  0  0  0  0  0  0  0  0  0
   -1.7771  -18.3738    0.0000 O   0  0  0  0  0  0  0  0  0  0  0  0
    0.0000  -17.0435    0.0000 C   0  0  0  0  0  0  0  0  0  0  0  0
    0.0000  -18.5435    0.0000 C   0  0  0  0  0  0  0  0  0  0  0  0
   -1.2990  -19.2935    0.0000 C   0  0  0  0  0  0  0  0  0  0  0  0
   -1.2990  -20.7935    0.0000 C   0  0  0  0  0  0  0  0  0  0  0  0
   -2.5981  -21.5435    0.0000 N   0  0  0  0  0  0  0  0  0  0  0  0
   -2.5981  -23.0435    0.0000 C   0  0  0  0  0  0  0  0  0  0  0  0
   -1.2990  -23.7935    0.0000 N   0  0  0  0  0  0  0  0  0  0  0  0
   -3.8971  -23.7935    0.0000 N   0  0  0  0  0  0  0  0  0  0  0  0
    1.4932  -16.9009    0.0000 N   0  0  0  0  0  0  0  0  0  0  0  0
    2.9324  -16.4783    0.0000 C   0  0  0  0  0  0  0  0  0  0  0  0
    3.4899  -17.8708    0.0000 O   0  0  0  0  0  0  0  0  0  0  0  0
    4.2657  -15.7910    0.0000 C   0  0  0  0  0  0  0  0  0  0  0  0
    5.0767  -17.0528    0.0000 C   0  0  0  0  0  0  0  0  0  0  0  0
    4.3893  -18.3861    0.0000 C   0  0  0  0  0  0  0  0  0  0  0  0
    2.8910  -18.4575    0.0000 C   0  0  0  0  0  0  0  0  0  0  0  0
    2.2037  -19.7907    0.0000 C   0  0  0  0  0  0  0  0  0  0  0  0
    3.0146  -21.0526    0.0000 C   0  0  0  0  0  0  0  0  0  0  0  0
    2.3273  -22.3858    0.0000 F   0  0  0  0  0  0  0  0  0  0  0  0
    4.5129  -20.9812    0.0000 C   0  0  0  0  0  0  0  0  0  0  0  0
    5.2003  -19.6480    0.0000 C   0  0  0  0  0  0  0  0  0  0  0  0
    5.4448  -14.8637    0.0000 N   0  0  0  0  0  0  0  0  0  0  0  0
    6.4271  -13.7301    0.0000 C   0  0  0  0  0  0  0  0  0  0  0  0
    7.6489  -14.6002    0.0000 O   0  0  0  0  0  0  0  0  0  0  0  0
    7.1771  -12.4311    0.0000 C   0  0  0  0  0  0  0  0  0  0  0  0
    8.5415  -13.0542    0.0000 C   0  0  0  0  0  0  0  0  0  0  0  0
    8.6841  -14.5474    0.0000 C   0  0  0  0  0  0  0  0  0  0  0  0
    7.4622  -15.4175    0.0000 C   0  0  0  0  0  0  0  0  0  0  0  0
    7.6048  -16.9107    0.0000 C   0  0  0  0  0  0  0  0  0  0  0  0
    8.9693  -17.5338    0.0000 C   0  0  0  0  0  0  0  0  0  0  0  0
    9.1119  -19.0270    0.0000 O   0  0  0  0  0  0  0  0  0  0  0  0
   10.1911  -16.6637    0.0000 C   0  0  0  0  0  0  0  0  0  0  0  0
   10.0486  -15.1705    0.0000 C   0  0  0  0  0  0  0  0  0  0  0  0
    7.6677  -11.0136    0.0000 N   0  0  0  0  0  0  0  0  0  0  0  0
    7.8811   -9.5288    0.0000 C   0  0  0  0  0  0  0  0  0  0  0  0
    9.3794   -9.6002    0.0000 O   0  0  0  0  0  0  0  0  0  0  0  0
    7.8098   -8.0305    0.0000 C   0  0  0  0  0  0  0  0  0  0  0  0
    9.2945   -7.8170    0.0000 C   0  0  0  0  0  0  0  0  0  0  0  0
   10.2217   -8.9961    0.0000 C   0  0  0  0  0  0  0  0  0  0  0  0
   11.7065   -8.7827    0.0000 C   0  0  0  0  0  0  0  0  0  0  0  0
   12.6337   -9.9617    0.0000 N   0  0  0  0  0  0  0  0  0  0  0  0
   12.2640   -7.3901    0.0000 O   0  0  0  0  0  0  0  0  0  0  0  0
    7.4561   -6.5728    0.0000 N   0  0  0  0  0  0  0  0  0  0  0  0
    6.8330   -5.2084    0.0000 C   0  0  0  0  0  0  0  0  0  0  0  0
    8.1320   -4.4584    0.0000 O   0  0  0  0  0  0  0  0  0  0  0  0
    5.9629   -3.9865    0.0000 C   0  0  0  0  0  0  0  0  0  0  0  0
    4.8773   -2.9514    0.0000 C   0  0  0  0  0  0  0  0  0  0  0  0
    5.8046   -1.7723    0.0000 C   0  0  0  0  0  0  0  0  0  0  0  0
    7.2893   -1.9858    0.0000 C   0  0  0  0  0  0  0  0  0  0  0  0
    8.2165   -0.8067    0.0000 C   0  0  0  0  0  0  0  0  0  0  0  0
    9.7013   -1.0202    0.0000 C   0  0  0  0  0  0  0  0  0  0  0  0
   10.6285    0.1589    0.0000 C   0  0  0  0  0  0  0  0  0  0  0  0
   10.0710    1.5515    0.0000 C   0  0  0  0  0  0  0  0  0  0  0  0
    8.5863    1.7649    0.0000 C   0  0  0  0  0  0  0  0  0  0  0  0
    7.6590    0.5859    0.0000 C   0  0  0  0  0  0  0  0  0  0  0  0
    3.6154   -2.1404    0.0000 N   0  0  0  0  0  0  0  0  0  0  0  0
    2.2229   -1.5829    0.0000 C   0  0  0  0  0  0  0  0  0  0  0  0
    2.6455   -0.1437    0.0000 O   0  0  0  0  0  0  0  0  0  0  0  0
    0.7500   -1.2990    0.0000 C   0  0  0  0  0  0  0  0  0  0  0  0
    1.5000    0.0000    0.0000 C   0  0  0  0  0  0  0  0  0  0  0  0
    0.7500    1.2990    0.0000 C   0  0  0  0  0  0  0  0  0  0  0  0
   -0.7500    1.2990    0.0000 C   0  0  0  0  0  0  0  0  0  0  0  0
   -1.5000    0.0000    0.0000 C   0  0  0  0  0  0  0  0  0  0  0  0
   -0.7500   -1.2990    0.0000 N   0  0  0  0  0  0  0  0  0  0  0  0
   -2.2229   -1.5829    0.0000 C   0  0  0  0  0  0  0  0  0  0  0  0
   -2.6455   -0.1437    0.0000 O   0  0  0  0  0  0  0  0  0  0  0  0
   -3.6154   -2.1404    0.0000 C   0  0  0  0  0  0  0  0  0  0  0  0
   -4.3028   -0.8072    0.0000 O   0  0  0  0  0  0  0  0  0  0  0  0
   -4.8773   -2.9514    0.0000 C   0  0  0  0  0  0  0  0  0  0  0  0
   -6.2869   -2.4383    0.0000 C   0  0  0  0  0  0  0  0  0  0  0  0
   -5.0436   -1.4606    0.0000 C   0  0  0  0  0  0  0  0  0  0  0  0
   -5.9629   -3.9865    0.0000 C   0  0  0  0  0  0  0  0  0  0  0  0
   -6.8330   -5.2084    0.0000 O   0  0  0  0  0  0  0  0  0  0  0  0
   -7.4561   -6.5728    0.0000 C   0  0  0  0  0  0  0  0  0  0  0  0
   -8.8736   -6.0822    0.0000 O   0  0  0  0  0  0  0  0  0  0  0  0
  1  2  1  0
  2  3  1  0
  4  2  1  1
  4  5  1  0
  5  6  1  0
  6  7  2  0
  6  8  1  0
  8  9  1  6
  9 10  1  0
 10 11  1  0
 10 12  2  0
  8 13  1  0
 13 14  1  0
 14 15  2  0
 14 16  1  0
 16 17  1  1
 17 18  1  0
 18 19  1  0
 19 20  1  0
 20 21  1  0
 21 22  2  0
 21 23  1  0
 16 24  1  0
 24 25  1  0
 25 26  2  0
 25 27  1  0
 27 28  1  1
 28 29  1  0
 29 30  1  0
 30 31  1  0
 31 32  1  0
 32 33  2  0
 32 34  1  0
 27 35  1  0
 35 36  1  0
 36 37  2  0
 36 38  1  0
 38 39  1  1
 39 40  1  0
 40 41  2  0
 41 42  1  0
 42 43  2  0
 43 44  1  0
 43 45  1  0
 45 46  2  0
 38 47  1  0
 47 48  1  0
 48 49  2  0
 48 50  1  0
 50 51  1  1
 51 52  1  0
 52 53  2  0
 53 54  1  0
 54 55  2  0
 55 56  1  0
 55 57  1  0
 57 58  2  0
 50 59  1  0
 59 60  1  0
 60 61  2  0
 60 62  1  0
 62 63  1  1
 63 64  1  0
 64 65  1  0
 65 66  1  0
 65 67  2  0
 62 68  1  0
 68 69  1  0
 69 70  2  0
 69 71  1  0
 71 72  1  0
 72 73  1  6
 73 74  1  0
 74 75  1  0
 75 76  2  0
 76 77  1  0
 77 78  2  0
 78 79  1  0
 79 80  2  0
 72 81  1  0
 81 82  1  0
 82 83  2  0
 82 84  1  0
 84 85  1  1
 85 86  1  0
 86 87  1  0
 87 88  1  0
 88 89  1  0
 89 90  1  0
 90 91  2  0
 90 92  1  0
 92 93  2  0
 92 94  1  0
 94 95  1  0
 94 96  1  0
 94 97  1  0
 97 98  1  0
 98 99  1  0
 99100  2  0
 99  4  1  0
 46 40  1  0
 58 52  1  0
 80 75  1  0
 89 84  1  0
M  END
>  <molecule_chembl_id>  (136) 
CHEMBL3218635

>  <canonical_smiles>  (136) 
CC(C)[C@@H]1NC(=O)[C@@H](CC(N)=O)NC(=O)[C@H](CCCNC(=N)N)NC(=O)[C@H](CCCNC(=N)N)NC(=O)[C@H](Cc2ccc(F)cc2)NC(=O)[C@H](Cc2ccc(O)cc2)NC(=O)[C@H](CCC(N)=O)NC(=O)C[C@@H](CCc2ccccc2)NC(=O)[C@@H]2CCCCN2C(=O)C(=O)C(C)(C)COC1=O

>  <pchembl_value_mean>  (136) 
5.92

>  <inchi>  (136) 
InChI=1S/C67H94FN17O15/c1-37(2)54-64(99)100-36-67(3,4)55(90)63(98)85-31-9-8-16-50(85)62(97)77-42(24-19-38-12-6-5-7-13-38)34-53(89)78-46(27-28-51(69)87)58(93)81-48(33-40-20-25-43(86)26-21-40)60(95)82-47(32-39-17-22-41(68)23-18-39)59(94)80-44(14-10-29-75-65(71)72)56(91)79-45(15-11-30-76-66(73)74)57(92)83-49(35-52(70)88)61(96)84-54/h5-7,12-13,17-18,20-23,25-26,37,42,44-50,54,86H,8-11,14-16,19,24,27-36H2,1-4H3,(H2,69,87)(H2,70,88)(H,77,97)(H,78,89)(H,79,91)(H,80,94)(H,81,93)(H,82,95)(H,83,92)(H,84,96)(H4,71,72,75)(H4,73,74,76)/t42-,44+,45+,46+,47+,48+,49-,50+,54+/m1/s1

$$$$

     RDKit          2D

138143  0  0  0  0  0  0  0  0999 V2000
    8.0756   13.5855    0.0000 C   0  0  0  0  0  0  0  0  0  0  0  0
    6.6490   13.1220    0.0000 C   0  0  0  0  0  0  0  0  0  0  0  0
    6.3371   11.6548    0.0000 C   0  0  0  0  0  0  0  0  0  0  0  0
    7.4518   10.6511    0.0000 C   0  0  0  0  0  0  0  0  0  0  0  0
    4.9105   11.1912    0.0000 C   0  0  0  0  0  0  0  0  0  0  0  0
    5.2404    9.7280    0.0000 N   0  0  0  0  0  0  0  0  0  0  0  0
    5.2959    8.2290    0.0000 C   0  0  0  0  0  0  0  0  0  0  0  0
    6.7936    8.1459    0.0000 O   0  0  0  0  0  0  0  0  0  0  0  0
    5.0749    6.7454    0.0000 C   0  0  0  0  0  0  0  0  0  0  0  0
    6.5318    6.3885    0.0000 C   0  0  0  0  0  0  0  0  0  0  0  0
    6.9512    4.9483    0.0000 C   0  0  0  0  0  0  0  0  0  0  0  0
    5.9137    3.8650    0.0000 C   0  0  0  0  0  0  0  0  0  0  0  0
    6.3330    2.4248    0.0000 C   0  0  0  0  0  0  0  0  0  0  0  0
    7.7900    2.0679    0.0000 C   0  0  0  0  0  0  0  0  0  0  0  0
    8.2093    0.6277    0.0000 C   0  0  0  0  0  0  0  0  0  0  0  0
    7.1718   -0.4555    0.0000 C   0  0  0  0  0  0  0  0  0  0  0  0
    7.5912   -1.8957    0.0000 C   0  0  0  0  0  0  0  0  0  0  0  0
    9.0481   -2.2526    0.0000 C   0  0  0  0  0  0  0  0  0  0  0  0
   10.0856   -1.1694    0.0000 C   0  0  0  0  0  0  0  0  0  0  0  0
    9.6662    0.2708    0.0000 C   0  0  0  0  0  0  0  0  0  0  0  0
    8.8275    3.1512    0.0000 C   0  0  0  0  0  0  0  0  0  0  0  0
    8.4081    4.5914    0.0000 C   0  0  0  0  0  0  0  0  0  0  0  0
    4.5851    5.3276    0.0000 C   0  0  0  0  0  0  0  0  0  0  0  0
    5.9516    4.7091    0.0000 O   0  0  0  0  0  0  0  0  0  0  0  0
    3.8431    4.0240    0.0000 C   0  0  0  0  0  0  0  0  0  0  0  0
    5.0727    3.1649    0.0000 C   0  0  0  0  0  0  0  0  0  0  0  0
    4.9435    1.6704    0.0000 O   0  0  0  0  0  0  0  0  0  0  0  0
    6.1731    0.8113    0.0000 C   0  0  0  0  0  0  0  0  0  0  0  0
    2.8742    2.8789    0.0000 N   0  0  0  0  0  0  0  0  0  0  0  0
    1.7114    1.9313    0.0000 C   0  0  0  0  0  0  0  0  0  0  0  0
    2.5477    0.6860    0.0000 O   0  0  0  0  0  0  0  0  0  0  0  0
    0.3943    1.2135    0.0000 C   0  0  0  0  0  0  0  0  0  0  0  0
    1.2760    0.0000    0.0000 C   0  0  0  0  0  0  0  0  0  0  0  0
    0.3943   -1.2135    0.0000 C   0  0  0  0  0  0  0  0  0  0  0  0
   -1.0323   -0.7500    0.0000 C   0  0  0  0  0  0  0  0  0  0  0  0
   -1.0323    0.7500    0.0000 N   0  0  0  0  0  0  0  0  0  0  0  0
   -2.5198    0.5565    0.0000 C   0  0  0  0  0  0  0  0  0  0  0  0
   -2.4643   -0.9425    0.0000 O   0  0  0  0  0  0  0  0  0  0  0  0
   -4.0174    0.6396    0.0000 C   0  0  0  0  0  0  0  0  0  0  0  0
   -4.2384   -0.8440    0.0000 N   0  0  0  0  0  0  0  0  0  0  0  0
   -5.6337   -1.3945    0.0000 C   0  0  0  0  0  0  0  0  0  0  0  0
   -6.8081   -0.4613    0.0000 O   0  0  0  0  0  0  0  0  0  0  0  0
   -5.8547   -2.8781    0.0000 C   0  0  0  0  0  0  0  0  0  0  0  0
   -7.2500   -3.4286    0.0000 C   0  0  0  0  0  0  0  0  0  0  0  0
   -7.4710   -4.9122    0.0000 C   0  0  0  0  0  0  0  0  0  0  0  0
   -8.8663   -5.4627    0.0000 C   0  0  0  0  0  0  0  0  0  0  0  0
   -9.0873   -6.9463    0.0000 N   0  0  0  0  0  0  0  0  0  0  0  0
  -10.4826   -7.4968    0.0000 C   0  0  0  0  0  0  0  0  0  0  0  0
  -11.6570   -6.5636    0.0000 N   0  0  0  0  0  0  0  0  0  0  0  0
  -10.7036   -8.9804    0.0000 N   0  0  0  0  0  0  0  0  0  0  0  0
   -4.6803   -3.8113    0.0000 N   0  0  0  0  0  0  0  0  0  0  0  0
   -4.9013   -5.2949    0.0000 C   0  0  0  0  0  0  0  0  0  0  0  0
   -6.2966   -5.8454    0.0000 O   0  0  0  0  0  0  0  0  0  0  0  0
   -3.7269   -6.2281    0.0000 C   0  0  0  0  0  0  0  0  0  0  0  0
   -3.9478   -7.7117    0.0000 C   0  0  0  0  0  0  0  0  0  0  0  0
   -2.7734   -8.6449    0.0000 C   0  0  0  0  0  0  0  0  0  0  0  0
   -2.9944  -10.1285    0.0000 C   0  0  0  0  0  0  0  0  0  0  0  0
   -1.8200  -11.0617    0.0000 N   0  0  0  0  0  0  0  0  0  0  0  0
   -2.0409  -12.5454    0.0000 C   0  0  0  0  0  0  0  0  0  0  0  0
   -3.4363  -13.0958    0.0000 N   0  0  0  0  0  0  0  0  0  0  0  0
   -0.8666  -13.4785    0.0000 N   0  0  0  0  0  0  0  0  0  0  0  0
   -2.3315   -5.6776    0.0000 N   0  0  0  0  0  0  0  0  0  0  0  0
   -1.1571   -6.6108    0.0000 C   0  0  0  0  0  0  0  0  0  0  0  0
    0.2382   -6.0603    0.0000 C   0  0  0  0  0  0  0  0  0  0  0  0
   -1.3781   -8.0944    0.0000 O   0  0  0  0  0  0  0  0  0  0  0  0
   -5.4744    0.9965    0.0000 C   0  0  0  0  0  0  0  0  0  0  0  0
   -6.8409    1.6151    0.0000 S   0  0  0  0  0  0  0  0  0  0  0  0
   -8.0705    2.4742    0.0000 S   0  0  0  0  0  0  0  0  0  0  0  0
   -9.1213    3.5446    0.0000 C   0  0  0  0  0  0  0  0  0  0  0  0
   -9.9576    4.7898    0.0000 C   0  0  0  0  0  0  0  0  0  0  0  0
  -11.2747    4.0721    0.0000 C   0  0  0  0  0  0  0  0  0  0  0  0
  -11.3116    2.5725    0.0000 O   0  0  0  0  0  0  0  0  0  0  0  0
  -12.5549    4.8539    0.0000 N   0  0  0  0  0  0  0  0  0  0  0  0
  -13.8720    4.1361    0.0000 C   0  0  0  0  0  0  0  0  0  0  0  0
  -15.1521    4.9179    0.0000 C   0  0  0  0  0  0  0  0  0  0  0  0
  -16.4693    4.2001    0.0000 C   0  0  0  0  0  0  0  0  0  0  0  0
  -17.7494    4.9819    0.0000 C   0  0  0  0  0  0  0  0  0  0  0  0
  -19.0665    4.2641    0.0000 N   0  0  0  0  0  0  0  0  0  0  0  0
  -20.3467    5.0459    0.0000 C   0  0  0  0  0  0  0  0  0  0  0  0
  -20.3098    6.5454    0.0000 N   0  0  0  0  0  0  0  0  0  0  0  0
  -21.6638    4.3281    0.0000 N   0  0  0  0  0  0  0  0  0  0  0  0
  -13.9089    2.6365    0.0000 C   0  0  0  0  0  0  0  0  0  0  0  0
  -12.6288    1.8548    0.0000 O   0  0  0  0  0  0  0  0  0  0  0  0
  -15.2261    1.9188    0.0000 N   0  0  0  0  0  0  0  0  0  0  0  0
  -15.2630    0.4192    0.0000 C   0  0  0  0  0  0  0  0  0  0  0  0
  -16.5801   -0.2985    0.0000 C   0  0  0  0  0  0  0  0  0  0  0  0
  -16.6171   -1.7981    0.0000 C   0  0  0  0  0  0  0  0  0  0  0  0
  -17.9342   -2.5158    0.0000 C   0  0  0  0  0  0  0  0  0  0  0  0
  -17.9712   -4.0154    0.0000 N   0  0  0  0  0  0  0  0  0  0  0  0
  -19.2883   -4.7332    0.0000 C   0  0  0  0  0  0  0  0  0  0  0  0
  -20.5685   -3.9514    0.0000 N   0  0  0  0  0  0  0  0  0  0  0  0
  -19.3252   -6.2327    0.0000 N   0  0  0  0  0  0  0  0  0  0  0  0
  -13.9828   -0.3625    0.0000 C   0  0  0  0  0  0  0  0  0  0  0  0
  -14.0198   -1.8621    0.0000 N   0  0  0  0  0  0  0  0  0  0  0  0
  -12.6657    0.3552    0.0000 O   0  0  0  0  0  0  0  0  0  0  0  0
  -10.5507    6.1676    0.0000 N   0  0  0  0  0  0  0  0  0  0  0  0
  -10.8807    7.6308    0.0000 C   0  0  0  0  0  0  0  0  0  0  0  0
  -12.3681    7.4373    0.0000 O   0  0  0  0  0  0  0  0  0  0  0  0
  -10.9361    9.1298    0.0000 C   0  0  0  0  0  0  0  0  0  0  0  0
  -12.4338    9.2129    0.0000 C   0  0  0  0  0  0  0  0  0  0  0  0
  -13.1106   10.5515    0.0000 C   0  0  0  0  0  0  0  0  0  0  0  0
  -13.2546    7.9575    0.0000 C   0  0  0  0  0  0  0  0  0  0  0  0
  -10.7151   10.6135    0.0000 N   0  0  0  0  0  0  0  0  0  0  0  0
  -10.2253   12.0312    0.0000 C   0  0  0  0  0  0  0  0  0  0  0  0
  -11.5919   12.6498    0.0000 O   0  0  0  0  0  0  0  0  0  0  0  0
   -9.4833   13.3349    0.0000 C   0  0  0  0  0  0  0  0  0  0  0  0
  -10.8718   13.9025    0.0000 C   0  0  0  0  0  0  0  0  0  0  0  0
  -10.7610   15.3984    0.0000 C   0  0  0  0  0  0  0  0  0  0  0  0
   -9.3041   15.7553    0.0000 C   0  0  0  0  0  0  0  0  0  0  0  0
   -8.5145   14.4800    0.0000 N   0  0  0  0  0  0  0  0  0  0  0  0
   -7.3516   15.4275    0.0000 C   0  0  0  0  0  0  0  0  0  0  0  0
   -8.1879   16.6728    0.0000 O   0  0  0  0  0  0  0  0  0  0  0  0
   -6.0345   16.1453    0.0000 C   0  0  0  0  0  0  0  0  0  0  0  0
   -6.6277   17.5230    0.0000 C   0  0  0  0  0  0  0  0  0  0  0  0
   -5.7311   18.7256    0.0000 C   0  0  0  0  0  0  0  0  0  0  0  0
   -4.2414   18.5504    0.0000 O   0  0  0  0  0  0  0  0  0  0  0  0
   -6.3243   20.1033    0.0000 O   0  0  0  0  0  0  0  0  0  0  0  0
   -4.6079   16.6088    0.0000 N   0  0  0  0  0  0  0  0  0  0  0  0
   -3.1205   16.8023    0.0000 C   0  0  0  0  0  0  0  0  0  0  0  0
   -3.1759   18.3013    0.0000 O   0  0  0  0  0  0  0  0  0  0  0  0
   -1.6228   16.7192    0.0000 C   0  0  0  0  0  0  0  0  0  0  0  0
   -1.4018   18.2028    0.0000 C   0  0  0  0  0  0  0  0  0  0  0  0
   -0.0065   18.7533    0.0000 C   0  0  0  0  0  0  0  0  0  0  0  0
    1.1679   17.8201    0.0000 C   0  0  0  0  0  0  0  0  0  0  0  0
    2.5633   18.3706    0.0000 C   0  0  0  0  0  0  0  0  0  0  0  0
    2.7842   19.8543    0.0000 C   0  0  0  0  0  0  0  0  0  0  0  0
    4.1796   20.4047    0.0000 O   0  0  0  0  0  0  0  0  0  0  0  0
    1.6098   20.7874    0.0000 C   0  0  0  0  0  0  0  0  0  0  0  0
    0.2145   20.2370    0.0000 C   0  0  0  0  0  0  0  0  0  0  0  0
   -0.1659   16.3623    0.0000 N   0  0  0  0  0  0  0  0  0  0  0  0
    1.2007   15.7438    0.0000 C   0  0  0  0  0  0  0  0  0  0  0  0
    1.9427   17.0474    0.0000 O   0  0  0  0  0  0  0  0  0  0  0  0
    2.4303   14.8847    0.0000 C   0  0  0  0  0  0  0  0  0  0  0  0
    3.3992   16.0298    0.0000 C   0  0  0  0  0  0  0  0  0  0  0  0
    4.8753   15.7632    0.0000 O   0  0  0  0  0  0  0  0  0  0  0  0
    3.4811   13.8143    0.0000 N   0  0  0  0  0  0  0  0  0  0  0  0
    4.3173   12.5690    0.0000 C   0  0  0  0  0  0  0  0  0  0  0  0
    5.6345   13.2867    0.0000 O   0  0  0  0  0  0  0  0  0  0  0  0
  1  2  1  0
  2  3  1  0
  3  4  1  6
  3  5  1  0
  5  6  1  6
  6  7  1  0
  7  8  2  0
  7  9  1  0
  9 10  1  1
 10 11  1  0
 11 12  2  0
 12 13  1  0
 13 14  2  0
 14 15  1  0
 15 16  2  0
 16 17  1  0
 17 18  2  0
 18 19  1  0
 19 20  2  0
 14 21  1  0
 21 22  2  0
  9 23  1  0
 23 24  2  0
 23 25  1  0
 25 26  1  6
 26 27  1  0
 27 28  1  0
 25 29  1  0
 29 30  1  0
 30 31  2  0
 30 32  1  0
 32 33  1  6
 33 34  1  0
 34 35  1  0
 35 36  1  0
 36 37  1  0
 37 38  2  0
 37 39  1  0
 39 40  1  1
 40 41  1  0
 41 42  2  0
 41 43  1  0
 43 44  1  1
 44 45  1  0
 45 46  1  0
 46 47  1  0
 47 48  1  0
 48 49  2  0
 48 50  1  0
 43 51  1  0
 51 52  1  0
 52 53  2  0
 52 54  1  0
 54 55  1  1
 55 56  1  0
 56 57  1  0
 57 58  1  0
 58 59  1  0
 59 60  2  0
 59 61  1  0
 54 62  1  0
 62 63  1  0
 63 64  1  0
 63 65  2  0
 39 66  1  0
 66 67  1  0
 67 68  1  0
 68 69  1  0
 69 70  1  0
 70 71  1  1
 71 72  2  0
 71 73  1  0
 73 74  1  0
 74 75  1  6
 75 76  1  0
 76 77  1  0
 77 78  1  0
 78 79  1  0
 79 80  2  0
 79 81  1  0
 74 82  1  0
 82 83  2  0
 82 84  1  0
 84 85  1  0
 85 86  1  6
 86 87  1  0
 87 88  1  0
 88 89  1  0
 89 90  1  0
 90 91  2  0
 90 92  1  0
 85 93  1  0
 93 94  1  0
 93 95  2  0
 70 96  1  0
 96 97  1  0
 97 98  2  0
 97 99  1  0
 99100  1  6
100101  1  0
100102  1  0
 99103  1  0
103104  1  0
104105  2  0
104106  1  0
106107  1  6
107108  1  0
108109  1  0
109110  1  0
110111  1  0
111112  2  0
111113  1  0
113114  1  6
114115  1  0
115116  2  0
115117  1  0
113118  1  0
118119  1  0
119120  2  0
119121  1  0
121122  1  6
122123  1  0
123124  2  0
124125  1  0
125126  2  0
126127  1  0
126128  1  0
128129  2  0
121130  1  0
130131  1  0
131132  2  0
131133  1  0
133134  1  6
134135  1  0
133136  1  0
136137  1  0
137138  2  0
137  5  1  0
 22 11  1  0
 36 32  1  0
110106  1  0
129123  1  0
 20 15  1  0
M  END
>  <molecule_chembl_id>  (137) 
CHEMBL5206709

>  <canonical_smiles>  (137) 
CC[C@H](C)[C@@H]1NC(=O)[C@@H](Cc2ccc(-c3ccccc3)cc2)C(=O)[C@H](COC)NC(=O)[C@@H]2CCCN2C(=O)[C@@H](NC(=O)[C@H](CCCNC(=N)N)NC(=O)[C@H](CCCNC(=N)N)NC(C)=O)CSSC[C@@H](C(=O)N[C@@H](CCCNC(=N)N)C(=O)N[C@@H](CCCNC(=N)N)C(N)=O)NC(=O)[C@H](C(C)C)NC(=O)[C@@H]2CCCN2C(=O)[C@H](CC(=O)O)NC(=O)[C@H](Cc2ccc(O)cc2)NC(=O)[C@H](CO)NC1=O

>  <pchembl_value_mean>  (137) 
5.95

>  <inchi>  (137) 
InChI=1S/C88H133N27O21S2/c1-7-47(4)69-82(133)108-61(42-116)77(128)106-59(40-50-27-31-53(118)32-28-50)76(127)107-60(41-67(119)120)83(134)114-37-16-24-66(114)80(131)112-68(46(2)3)81(132)110-63(78(129)105-57(21-13-35-100-87(94)95)74(125)103-55(71(89)122)19-11-33-98-85(90)91)44-137-138-45-64(111-75(126)58(22-14-36-101-88(96)97)104-73(124)56(102-48(5)117)20-12-34-99-86(92)93)84(135)115-38-15-23-65(115)79(130)109-62(43-136-6)70(121)54(72(123)113-69)39-49-25-29-52(30-26-49)51-17-9-8-10-18-51/h8-10,17-18,25-32,46-47,54-66,68-69,116,118H,7,11-16,19-24,33-45H2,1-6H3,(H2,89,122)(H,102,117)(H,103,125)(H,104,124)(H,105,129)(H,106,128)(H,107,127)(H,108,133)(H,109,130)(H,110,132)(H,111,126)(H,112,131)(H,113,123)(H,119,120)(H4,90,91,98)(H4,92,93,99)(H4,94,95,100)(H4,96,97,101)/t47-,54-,55-,56-,57-,58-,59-,60-,61-,62-,63-,64-,65-,66-,68-,69-/m0/s1

$$$$

     RDKit          2D

109115  0  0  0  0  0  0  0  0999 V2000
   -6.2869   -2.4383    0.0000 C   0  0  0  0  0  0  0  0  0  0  0  0
   -4.8773   -2.9514    0.0000 C   0  0  0  0  0  0  0  0  0  0  0  0
   -5.0436   -1.4606    0.0000 C   0  0  0  0  0  0  0  0  0  0  0  0
   -5.9629   -3.9865    0.0000 C   0  0  0  0  0  0  0  0  0  0  0  0
   -6.8330   -5.2084    0.0000 O   0  0  0  0  0  0  0  0  0  0  0  0
   -7.4561   -6.5728    0.0000 C   0  0  0  0  0  0  0  0  0  0  0  0
   -8.8736   -6.0822    0.0000 O   0  0  0  0  0  0  0  0  0  0  0  0
   -7.8098   -8.0305    0.0000 C   0  0  0  0  0  0  0  0  0  0  0  0
   -9.2945   -7.8170    0.0000 C   0  0  0  0  0  0  0  0  0  0  0  0
   -9.8520   -6.4245    0.0000 C   0  0  0  0  0  0  0  0  0  0  0  0
   -8.9248   -5.2454    0.0000 C   0  0  0  0  0  0  0  0  0  0  0  0
   -9.4823   -3.8529    0.0000 C   0  0  0  0  0  0  0  0  0  0  0  0
  -10.9670   -3.6394    0.0000 C   0  0  0  0  0  0  0  0  0  0  0  0
  -11.8942   -4.8185    0.0000 C   0  0  0  0  0  0  0  0  0  0  0  0
  -11.3367   -6.2110    0.0000 C   0  0  0  0  0  0  0  0  0  0  0  0
   -7.8811   -9.5288    0.0000 N   0  0  0  0  0  0  0  0  0  0  0  0
   -7.6677  -11.0136    0.0000 C   0  0  0  0  0  0  0  0  0  0  0  0
   -9.1254  -11.3672    0.0000 O   0  0  0  0  0  0  0  0  0  0  0  0
   -7.1771  -12.4311    0.0000 C   0  0  0  0  0  0  0  0  0  0  0  0
   -8.5415  -13.0542    0.0000 C   0  0  0  0  0  0  0  0  0  0  0  0
   -9.7634  -12.1841    0.0000 C   0  0  0  0  0  0  0  0  0  0  0  0
  -11.1278  -12.8072    0.0000 C   0  0  0  0  0  0  0  0  0  0  0  0
  -12.3497  -11.9371    0.0000 N   0  0  0  0  0  0  0  0  0  0  0  0
  -13.7141  -12.5602    0.0000 C   0  0  0  0  0  0  0  0  0  0  0  0
  -13.8567  -14.0535    0.0000 N   0  0  0  0  0  0  0  0  0  0  0  0
  -14.9360  -11.6902    0.0000 N   0  0  0  0  0  0  0  0  0  0  0  0
   -6.4271  -13.7301    0.0000 N   0  0  0  0  0  0  0  0  0  0  0  0
   -5.4448  -14.8637    0.0000 C   0  0  0  0  0  0  0  0  0  0  0  0
   -6.4799  -15.9493    0.0000 O   0  0  0  0  0  0  0  0  0  0  0  0
   -4.2657  -15.7910    0.0000 C   0  0  0  0  0  0  0  0  0  0  0  0
   -5.0767  -17.0528    0.0000 C   0  0  0  0  0  0  0  0  0  0  0  0
   -6.5750  -16.9815    0.0000 C   0  0  0  0  0  0  0  0  0  0  0  0
   -7.2623  -15.6482    0.0000 C   0  0  0  0  0  0  0  0  0  0  0  0
   -8.7606  -15.5768    0.0000 C   0  0  0  0  0  0  0  0  0  0  0  0
   -9.5716  -16.8387    0.0000 C   0  0  0  0  0  0  0  0  0  0  0  0
  -11.0699  -16.7673    0.0000 C   0  0  0  0  0  0  0  0  0  0  0  0
  -11.8808  -18.0292    0.0000 C   0  0  0  0  0  0  0  0  0  0  0  0
  -11.1935  -19.3625    0.0000 C   0  0  0  0  0  0  0  0  0  0  0  0
   -9.6952  -19.4338    0.0000 C   0  0  0  0  0  0  0  0  0  0  0  0
   -8.8842  -18.1720    0.0000 C   0  0  0  0  0  0  0  0  0  0  0  0
   -7.3859  -18.2433    0.0000 C   0  0  0  0  0  0  0  0  0  0  0  0
   -2.9324  -16.4783    0.0000 N   0  0  0  0  0  0  0  0  0  0  0  0
   -1.4932  -16.9009    0.0000 C   0  0  0  0  0  0  0  0  0  0  0  0
   -1.7771  -18.3738    0.0000 O   0  0  0  0  0  0  0  0  0  0  0  0
   -0.0000  -17.0435    0.0000 C   0  0  0  0  0  0  0  0  0  0  0  0
   -0.0000  -18.5435    0.0000 C   0  0  0  0  0  0  0  0  0  0  0  0
   -1.2990  -19.2935    0.0000 C   0  0  0  0  0  0  0  0  0  0  0  0
   -1.2990  -20.7935    0.0000 C   0  0  0  0  0  0  0  0  0  0  0  0
   -2.5981  -21.5435    0.0000 N   0  0  0  0  0  0  0  0  0  0  0  0
   -2.5981  -23.0435    0.0000 C   0  0  0  0  0  0  0  0  0  0  0  0
   -1.2990  -23.7935    0.0000 N   0  0  0  0  0  0  0  0  0  0  0  0
   -3.8971  -23.7935    0.0000 N   0  0  0  0  0  0  0  0  0  0  0  0
    1.4932  -16.9009    0.0000 N   0  0  0  0  0  0  0  0  0  0  0  0
    2.9324  -16.4783    0.0000 C   0  0  0  0  0  0  0  0  0  0  0  0
    3.4899  -17.8708    0.0000 O   0  0  0  0  0  0  0  0  0  0  0  0
    4.2657  -15.7910    0.0000 C   0  0  0  0  0  0  0  0  0  0  0  0
    5.0767  -17.0528    0.0000 C   0  0  0  0  0  0  0  0  0  0  0  0
    4.3893  -18.3861    0.0000 C   0  0  0  0  0  0  0  0  0  0  0  0
    2.8910  -18.4575    0.0000 C   0  0  0  0  0  0  0  0  0  0  0  0
    2.2037  -19.7907    0.0000 C   0  0  0  0  0  0  0  0  0  0  0  0
    3.0146  -21.0526    0.0000 C   0  0  0  0  0  0  0  0  0  0  0  0
    4.5129  -20.9812    0.0000 C   0  0  0  0  0  0  0  0  0  0  0  0
    5.2003  -19.6480    0.0000 C   0  0  0  0  0  0  0  0  0  0  0  0
    5.4448  -14.8637    0.0000 N   0  0  0  0  0  0  0  0  0  0  0  0
    6.4271  -13.7301    0.0000 C   0  0  0  0  0  0  0  0  0  0  0  0
    7.6489  -14.6002    0.0000 O   0  0  0  0  0  0  0  0  0  0  0  0
    7.1771  -12.4311    0.0000 C   0  0  0  0  0  0  0  0  0  0  0  0
    8.5415  -13.0542    0.0000 C   0  0  0  0  0  0  0  0  0  0  0  0
    8.6841  -14.5474    0.0000 C   0  0  0  0  0  0  0  0  0  0  0  0
   10.0486  -15.1705    0.0000 C   0  0  0  0  0  0  0  0  0  0  0  0
   10.1911  -16.6637    0.0000 N   0  0  0  0  0  0  0  0  0  0  0  0
   11.5556  -17.2868    0.0000 C   0  0  0  0  0  0  0  0  0  0  0  0
   11.6982  -18.7800    0.0000 N   0  0  0  0  0  0  0  0  0  0  0  0
   12.7774  -16.4168    0.0000 N   0  0  0  0  0  0  0  0  0  0  0  0
    7.6677  -11.0136    0.0000 N   0  0  0  0  0  0  0  0  0  0  0  0
    7.8811   -9.5288    0.0000 C   0  0  0  0  0  0  0  0  0  0  0  0
    9.3794   -9.6002    0.0000 O   0  0  0  0  0  0  0  0  0  0  0  0
    7.8098   -8.0305    0.0000 C   0  0  0  0  0  0  0  0  0  0  0  0
    9.2945   -7.8170    0.0000 C   0  0  0  0  0  0  0  0  0  0  0  0
   10.2217   -8.9961    0.0000 C   0  0  0  0  0  0  0  0  0  0  0  0
   11.7065   -8.7827    0.0000 C   0  0  0  0  0  0  0  0  0  0  0  0
   12.6337   -9.9617    0.0000 N   0  0  0  0  0  0  0  0  0  0  0  0
   12.2640   -7.3901    0.0000 O   0  0  0  0  0  0  0  0  0  0  0  0
    7.4561   -6.5728    0.0000 N   0  0  0  0  0  0  0  0  0  0  0  0
    6.8330   -5.2084    0.0000 C   0  0  0  0  0  0  0  0  0  0  0  0
    8.1320   -4.4584    0.0000 O   0  0  0  0  0  0  0  0  0  0  0  0
    5.9629   -3.9865    0.0000 C   0  0  0  0  0  0  0  0  0  0  0  0
    4.8773   -2.9514    0.0000 C   0  0  0  0  0  0  0  0  0  0  0  0
    5.8046   -1.7723    0.0000 C   0  0  0  0  0  0  0  0  0  0  0  0
    7.2893   -1.9858    0.0000 C   0  0  0  0  0  0  0  0  0  0  0  0
    8.2165   -0.8067    0.0000 C   0  0  0  0  0  0  0  0  0  0  0  0
    9.7013   -1.0202    0.0000 C   0  0  0  0  0  0  0  0  0  0  0  0
   10.6285    0.1589    0.0000 C   0  0  0  0  0  0  0  0  0  0  0  0
   10.0710    1.5515    0.0000 C   0  0  0  0  0  0  0  0  0  0  0  0
    8.5863    1.7649    0.0000 C   0  0  0  0  0  0  0  0  0  0  0  0
    7.6590    0.5859    0.0000 C   0  0  0  0  0  0  0  0  0  0  0  0
    3.6154   -2.1404    0.0000 N   0  0  0  0  0  0  0  0  0  0  0  0
    2.2229   -1.5829    0.0000 C   0  0  0  0  0  0  0  0  0  0  0  0
    2.6455   -0.1437    0.0000 O   0  0  0  0  0  0  0  0  0  0  0  0
    0.7500   -1.2990    0.0000 C   0  0  0  0  0  0  0  0  0  0  0  0
    1.5000    0.0000    0.0000 C   0  0  0  0  0  0  0  0  0  0  0  0
    0.7500    1.2990    0.0000 C   0  0  0  0  0  0  0  0  0  0  0  0
   -0.7500    1.2990    0.0000 C   0  0  0  0  0  0  0  0  0  0  0  0
   -1.5000    0.0000    0.0000 C   0  0  0  0  0  0  0  0  0  0  0  0
   -0.7500   -1.2990    0.0000 N   0  0  0  0  0  0  0  0  0  0  0  0
   -2.2229   -1.5829    0.0000 C   0  0  0  0  0  0  0  0  0  0  0  0
   -2.6455   -0.1437    0.0000 O   0  0  0  0  0  0  0  0  0  0  0  0
   -3.6154   -2.1404    0.0000 C   0  0  0  0  0  0  0  0  0  0  0  0
   -4.3028   -0.8072    0.0000 O   0  0  0  0  0  0  0  0  0  0  0  0
  1  2  1  0
  2  3  1  0
  2  4  1  0
  4  5  1  0
  5  6  1  0
  6  7  2  0
  6  8  1  0
  8  9  1  1
  9 10  1  0
 10 11  2  0
 11 12  1  0
 12 13  2  0
 13 14  1  0
 14 15  2  0
  8 16  1  0
 16 17  1  0
 17 18  2  0
 17 19  1  0
 19 20  1  1
 20 21  1  0
 21 22  1  0
 22 23  1  0
 23 24  1  0
 24 25  2  0
 24 26  1  0
 19 27  1  0
 27 28  1  0
 28 29  2  0
 28 30  1  0
 30 31  1  6
 31 32  1  0
 32 33  2  0
 33 34  1  0
 34 35  2  0
 35 36  1  0
 36 37  2  0
 37 38  1  0
 38 39  2  0
 39 40  1  0
 40 41  2  0
 30 42  1  0
 42 43  1  0
 43 44  2  0
 43 45  1  0
 45 46  1  1
 46 47  1  0
 47 48  1  0
 48 49  1  0
 49 50  1  0
 50 51  2  0
 50 52  1  0
 45 53  1  0
 53 54  1  0
 54 55  2  0
 54 56  1  0
 56 57  1  6
 57 58  1  0
 58 59  2  0
 59 60  1  0
 60 61  2  0
 61 62  1  0
 62 63  2  0
 56 64  1  0
 64 65  1  0
 65 66  2  0
 65 67  1  0
 67 68  1  1
 68 69  1  0
 69 70  1  0
 70 71  1  0
 71 72  2  0
 72 73  1  0
 72 74  1  0
 67 75  1  0
 75 76  1  0
 76 77  2  0
 76 78  1  0
 78 79  1  1
 79 80  1  0
 80 81  1  0
 81 82  1  0
 81 83  2  0
 78 84  1  0
 84 85  1  0
 85 86  2  0
 85 87  1  0
 87 88  1  0
 88 89  1  6
 89 90  1  0
 90 91  1  0
 91 92  2  0
 92 93  1  0
 93 94  2  0
 94 95  1  0
 95 96  2  0
 88 97  1  0
 97 98  1  0
 98 99  2  0
 98100  1  0
100101  1  1
101102  1  0
102103  1  0
103104  1  0
104105  1  0
105106  1  0
106107  2  0
106108  1  0
108109  2  0
108  2  1  0
 15 10  1  0
 41 32  1  0
 63 58  1  0
 96 91  1  0
105100  1  0
 40 35  1  0
M  END
>  <molecule_chembl_id>  (138) 
CHEMBL3218642

>  <canonical_smiles>  (138) 
CC1(C)COC(=O)[C@H](Cc2ccccc2)NC(=O)[C@H](CCCNC(=N)N)NC(=O)[C@@H](Cc2ccc3ccccc3c2)NC(=O)[C@H](CCCNC(=N)N)NC(=O)[C@@H](Cc2ccccc2)NC(=O)[C@H](CCCN=C(N)N)NC(=O)[C@H](CCC(N)=O)NC(=O)C[C@@H](CCc2ccccc2)NC(=O)[C@@H]2CCCCN2C(=O)C1=O

>  <pchembl_value_mean>  (138) 
5.96

>  <inchi>  (138) 
InChI=1S/C77H103N19O13/c1-77(2)46-109-73(108)60(43-49-23-10-5-11-24-49)95-67(102)56(29-18-39-87-76(83)84)92-70(105)59(44-50-31-33-51-25-12-13-26-52(51)41-50)94-66(101)55(28-17-38-86-75(81)82)91-69(104)58(42-48-21-8-4-9-22-48)93-65(100)54(27-16-37-85-74(79)80)90-68(103)57(35-36-62(78)97)89-63(98)45-53(34-32-47-19-6-3-7-20-47)88-71(106)61-30-14-15-40-96(61)72(107)64(77)99/h3-13,19-26,31,33,41,53-61H,14-18,27-30,32,34-40,42-46H2,1-2H3,(H2,78,97)(H,88,106)(H,89,98)(H,90,103)(H,91,104)(H,92,105)(H,93,100)(H,94,101)(H,95,102)(H4,79,80,85)(H4,81,82,86)(H4,83,84,87)/t53-,54+,55+,56+,57+,58-,59-,60+,61+/m1/s1

$$$$

     RDKit          2D

 38 42  0  0  0  0  0  0  0  0999 V2000
    3.7500   -9.0933    0.0000 C   0  0  0  0  0  0  0  0  0  0  0  0
    3.0000   -7.7942    0.0000 C   0  0  0  0  0  0  0  0  0  0  0  0
    3.7500   -6.4952    0.0000 C   0  0  0  0  0  0  0  0  0  0  0  0
    5.2500   -6.4952    0.0000 O   0  0  0  0  0  0  0  0  0  0  0  0
    3.0000   -5.1962    0.0000 N   0  0  0  0  0  0  0  0  0  0  0  0
    1.5000   -5.1962    0.0000 C   0  0  0  0  0  0  0  0  0  0  0  0
    0.7500   -3.8971    0.0000 C   0  0  0  0  0  0  0  0  0  0  0  0
    1.5000   -2.5981    0.0000 N   0  0  0  0  0  0  0  0  0  0  0  0
    0.7500   -1.2990    0.0000 C   0  0  0  0  0  0  0  0  0  0  0  0
    1.5000    0.0000    0.0000 N   0  0  0  0  0  0  0  0  0  0  0  0
    0.7500    1.2990    0.0000 N   0  0  0  0  0  0  0  0  0  0  0  0
   -0.7500    1.2990    0.0000 C   0  0  0  0  0  0  0  0  0  0  0  0
   -1.5000    2.5981    0.0000 C   0  0  0  0  0  0  0  0  0  0  0  0
   -3.0000    2.5981    0.0000 C   0  0  0  0  0  0  0  0  0  0  0  0
   -3.7500    3.8971    0.0000 C   0  0  0  0  0  0  0  0  0  0  0  0
   -3.0000    5.1962    0.0000 C   0  0  0  0  0  0  0  0  0  0  0  0
   -1.5000    5.1962    0.0000 C   0  0  0  0  0  0  0  0  0  0  0  0
   -0.7500    3.8971    0.0000 C   0  0  0  0  0  0  0  0  0  0  0  0
    0.7500    3.8971    0.0000 C   0  0  0  0  0  0  0  0  0  0  0  0
    1.5000    5.1962    0.0000 C   0  0  0  0  0  0  0  0  0  0  0  0
    1.5000    2.5981    0.0000 C   0  0  0  0  0  0  0  0  0  0  0  0
   -1.5000    0.0000    0.0000 C   0  0  0  0  0  0  0  0  0  0  0  0
   -3.0000    0.0000    0.0000 C   0  0  0  0  0  0  0  0  0  0  0  0
   -3.7500   -1.2990    0.0000 C   0  0  0  0  0  0  0  0  0  0  0  0
   -5.2500   -1.2990    0.0000 C   0  0  0  0  0  0  0  0  0  0  0  0
   -6.0000    0.0000    0.0000 C   0  0  0  0  0  0  0  0  0  0  0  0
   -5.2500    1.2990    0.0000 O   0  0  0  0  0  0  0  0  0  0  0  0
   -7.5000    0.0000    0.0000 C   0  0  0  0  0  0  0  0  0  0  0  0
   -8.2500   -1.2990    0.0000 C   0  0  0  0  0  0  0  0  0  0  0  0
   -7.5000   -2.5981    0.0000 C   0  0  0  0  0  0  0  0  0  0  0  0
   -6.0000   -2.5981    0.0000 C   0  0  0  0  0  0  0  0  0  0  0  0
   -5.2500   -3.8971    0.0000 F   0  0  0  0  0  0  0  0  0  0  0  0
   -3.0000   -2.5981    0.0000 C   0  0  0  0  0  0  0  0  0  0  0  0
   -3.7500   -3.8971    0.0000 Cl  0  0  0  0  0  0  0  0  0  0  0  0
   -1.5000   -2.5981    0.0000 C   0  0  0  0  0  0  0  0  0  0  0  0
   -0.7500   -1.2990    0.0000 C   0  0  0  0  0  0  0  0  0  0  0  0
    3.0000   -2.5981    0.0000 C   0  0  0  0  0  0  0  0  0  0  0  0
    3.7500   -3.8971    0.0000 C   0  0  0  0  0  0  0  0  0  0  0  0
  1  2  2  0
  2  3  1  0
  3  4  2  0
  3  5  1  0
  5  6  1  0
  6  7  1  0
  7  8  1  0
  8  9  1  0
  9 10  2  0
 10 11  1  0
 11 12  2  0
 12 13  1  0
 13 14  2  0
 14 15  1  0
 15 16  2  0
 16 17  1  0
 17 18  2  0
 18 19  1  0
 19 20  1  0
 19 21  1  0
 12 22  1  0
 22 23  2  0
 23 24  1  0
 24 25  1  0
 25 26  2  0
 26 27  1  0
 26 28  1  0
 28 29  2  0
 29 30  1  0
 30 31  2  0
 31 32  1  0
 24 33  2  0
 33 34  1  0
 33 35  1  0
 35 36  2  0
  8 37  1  0
 37 38  1  0
 38  5  1  0
 36  9  1  0
 18 13  1  0
 36 22  1  0
 31 25  1  0
M  END
>  <molecule_chembl_id>  (139) 
CHEMBL4460809

>  <canonical_smiles>  (139) 
C=CC(=O)N1CCN(c2nnc(-c3ccccc3C(C)C)c3cc(-c4c(O)cccc4F)c(Cl)cc23)CC1

>  <pchembl_value_mean>  (139) 
5.96

>  <inchi>  (139) 
InChI=1S/C30H28ClFN4O2/c1-4-27(38)35-12-14-36(15-13-35)30-22-17-24(31)23(28-25(32)10-7-11-26(28)37)16-21(22)29(33-34-30)20-9-6-5-8-19(20)18(2)3/h4-11,16-18,37H,1,12-15H2,2-3H3

$$$$

     RDKit          2D

157166  0  0  0  0  0  0  0  0999 V2000
   15.4792   -0.1915    0.0000 C   0  0  0  0  0  0  0  0  0  0  0  0
   13.9792   -0.1915    0.0000 C   0  0  0  0  0  0  0  0  0  0  0  0
   13.8112   -1.6821    0.0000 N   0  0  0  0  0  0  0  0  0  0  0  0
   13.3158   -3.0979    0.0000 C   0  0  0  0  0  0  0  0  0  0  0  0
   14.6672   -3.7487    0.0000 O   0  0  0  0  0  0  0  0  0  0  0  0
   12.5177   -4.3680    0.0000 C   0  0  0  0  0  0  0  0  0  0  0  0
   13.6905   -5.3032    0.0000 C   0  0  0  0  0  0  0  0  0  0  0  0
   13.4669   -6.7865    0.0000 C   0  0  0  0  0  0  0  0  0  0  0  0
   12.0706   -7.3345    0.0000 C   0  0  0  0  0  0  0  0  0  0  0  0
   11.8471   -8.8177    0.0000 C   0  0  0  0  0  0  0  0  0  0  0  0
   13.0198   -9.7530    0.0000 C   0  0  0  0  0  0  0  0  0  0  0  0
   14.4161   -9.2050    0.0000 C   0  0  0  0  0  0  0  0  0  0  0  0
   14.6397   -7.7217    0.0000 C   0  0  0  0  0  0  0  0  0  0  0  0
   11.4571   -5.4287    0.0000 N   0  0  0  0  0  0  0  0  0  0  0  0
   10.1870   -6.2267    0.0000 C   0  0  0  0  0  0  0  0  0  0  0  0
   10.8378   -7.5782    0.0000 O   0  0  0  0  0  0  0  0  0  0  0  0
    8.7712   -6.7221    0.0000 C   0  0  0  0  0  0  0  0  0  0  0  0
    7.2806   -6.8901    0.0000 C   0  0  0  0  0  0  0  0  0  0  0  0
    5.7900   -6.7221    0.0000 C   0  0  0  0  0  0  0  0  0  0  0  0
    4.3742   -6.2267    0.0000 C   0  0  0  0  0  0  0  0  0  0  0  0
    3.1041   -5.4287    0.0000 C   0  0  0  0  0  0  0  0  0  0  0  0
    2.0435   -4.3680    0.0000 N   0  0  0  0  0  0  0  0  0  0  0  0
    1.2454   -3.0979    0.0000 C   0  0  0  0  0  0  0  0  0  0  0  0
   -0.1060   -3.7487    0.0000 O   0  0  0  0  0  0  0  0  0  0  0  0
    0.7500   -1.2990    0.0000 C   0  0  0  0  0  0  0  0  0  0  0  0
    1.5000    0.0000    0.0000 C   0  0  0  0  0  0  0  0  0  0  0  0
    0.7500    1.2990    0.0000 C   0  0  0  0  0  0  0  0  0  0  0  0
   -0.7500    1.2990    0.0000 C   0  0  0  0  0  0  0  0  0  0  0  0
   -1.5000    0.0000    0.0000 C   0  0  0  0  0  0  0  0  0  0  0  0
   -0.7500   -1.2990    0.0000 C   0  0  0  0  0  0  0  0  0  0  0  0
   -2.3002   -1.3623    0.0000 C   0  0  0  0  0  0  0  0  0  0  0  0
   -3.7181    0.3198    0.0000 O   0  0  0  0  0  0  0  0  0  0  0  0
   -3.2158   -2.3372    0.0000 N   0  0  0  0  0  0  0  0  0  0  0  0
   -3.8819   -3.4970    0.0000 C   0  0  0  0  0  0  0  0  0  0  0  0
   -5.9040   -2.6302    0.0000 C   0  0  0  0  0  0  0  0  0  0  0  0
   -6.0815   -1.1408    0.0000 C   0  0  0  0  0  0  0  0  0  0  0  0
   -4.8803   -0.2423    0.0000 C   0  0  0  0  0  0  0  0  0  0  0  0
   -5.0578    1.2471    0.0000 C   0  0  0  0  0  0  0  0  0  0  0  0
   -6.4365    1.8381    0.0000 C   0  0  0  0  0  0  0  0  0  0  0  0
   -6.6140    3.3276    0.0000 C   0  0  0  0  0  0  0  0  0  0  0  0
   -7.9927    3.9186    0.0000 C   0  0  0  0  0  0  0  0  0  0  0  0
   -9.1939    3.0201    0.0000 C   0  0  0  0  0  0  0  0  0  0  0  0
   -9.0163    1.5307    0.0000 C   0  0  0  0  0  0  0  0  0  0  0  0
   -7.6377    0.9397    0.0000 C   0  0  0  0  0  0  0  0  0  0  0  0
   -7.4602   -0.5498    0.0000 C   0  0  0  0  0  0  0  0  0  0  0  0
   -4.2626   -4.7792    0.0000 C   0  0  0  0  0  0  0  0  0  0  0  0
   -6.4300   -4.4021    0.0000 O   0  0  0  0  0  0  0  0  0  0  0  0
   -4.3373   -6.1146    0.0000 N   0  0  0  0  0  0  0  0  0  0  0  0
   -4.1021   -7.4312    0.0000 C   0  0  0  0  0  0  0  0  0  0  0  0
   -6.2082   -8.0669    0.0000 C   0  0  0  0  0  0  0  0  0  0  0  0
   -7.3016   -7.0400    0.0000 O   0  0  0  0  0  0  0  0  0  0  0  0
   -3.5696   -8.6581    0.0000 C   0  0  0  0  0  0  0  0  0  0  0  0
   -5.4723   -9.7624    0.0000 O   0  0  0  0  0  0  0  0  0  0  0  0
   -2.7685   -9.7291    0.0000 N   0  0  0  0  0  0  0  0  0  0  0  0
   -1.7420  -10.5864    0.0000 C   0  0  0  0  0  0  0  0  0  0  0  0
   -2.9467  -12.4273    0.0000 C   0  0  0  0  0  0  0  0  0  0  0  0
   -4.4444  -12.3434    0.0000 C   0  0  0  0  0  0  0  0  0  0  0  0
   -5.2658  -13.5985    0.0000 N   0  0  0  0  0  0  0  0  0  0  0  0
   -5.1206  -11.0045    0.0000 O   0  0  0  0  0  0  0  0  0  0  0  0
   -0.5454  -11.1840    0.0000 C   0  0  0  0  0  0  0  0  0  0  0  0
   -1.2931  -13.2530    0.0000 O   0  0  0  0  0  0  0  0  0  0  0  0
    0.7567  -11.4895    0.0000 N   0  0  0  0  0  0  0  0  0  0  0  0
    2.0942  -11.4864    0.0000 C   0  0  0  0  0  0  0  0  0  0  0  0
    2.3546  -13.6710    0.0000 C   0  0  0  0  0  0  0  0  0  0  0  0
    1.1534  -14.5694    0.0000 C   0  0  0  0  0  0  0  0  0  0  0  0
   -0.2253  -13.9785    0.0000 C   0  0  0  0  0  0  0  0  0  0  0  0
   -1.4264  -14.8769    0.0000 C   0  0  0  0  0  0  0  0  0  0  0  0
   -1.2489  -16.3664    0.0000 C   0  0  0  0  0  0  0  0  0  0  0  0
   -2.4501  -17.2648    0.0000 C   0  0  0  0  0  0  0  0  0  0  0  0
   -2.2725  -18.7543    0.0000 C   0  0  0  0  0  0  0  0  0  0  0  0
   -0.8939  -19.3453    0.0000 C   0  0  0  0  0  0  0  0  0  0  0  0
    0.3073  -18.4468    0.0000 C   0  0  0  0  0  0  0  0  0  0  0  0
    0.1298  -16.9574    0.0000 C   0  0  0  0  0  0  0  0  0  0  0  0
    1.3309  -16.0589    0.0000 C   0  0  0  0  0  0  0  0  0  0  0  0
    3.3949  -11.1751    0.0000 C   0  0  0  0  0  0  0  0  0  0  0  0
    4.1520  -13.2407    0.0000 O   0  0  0  0  0  0  0  0  0  0  0  0
    4.5887  -10.5721    0.0000 N   0  0  0  0  0  0  0  0  0  0  0  0
    5.6114   -9.7101    0.0000 C   0  0  0  0  0  0  0  0  0  0  0  0
    7.2150  -11.2162    0.0000 C   0  0  0  0  0  0  0  0  0  0  0  0
    6.8724  -12.6765    0.0000 C   0  0  0  0  0  0  0  0  0  0  0  0
    7.9658  -13.7034    0.0000 C   0  0  0  0  0  0  0  0  0  0  0  0
    9.4018  -13.2699    0.0000 C   0  0  0  0  0  0  0  0  0  0  0  0
    9.7444  -11.8096    0.0000 C   0  0  0  0  0  0  0  0  0  0  0  0
    8.6510  -10.7827    0.0000 C   0  0  0  0  0  0  0  0  0  0  0  0
    6.4076   -8.6354    0.0000 C   0  0  0  0  0  0  0  0  0  0  0  0
    8.3154   -9.7311    0.0000 O   0  0  0  0  0  0  0  0  0  0  0  0
    8.1358   -8.0625    0.0000 N   0  0  0  0  0  0  0  0  0  0  0  0
    1.2454    2.7149    0.0000 C   0  0  0  0  0  0  0  0  0  0  0  0
    0.0946    3.1047    0.0000 O   0  0  0  0  0  0  0  0  0  0  0  0
    2.0435    3.9849    0.0000 N   0  0  0  0  0  0  0  0  0  0  0  0
    3.1041    5.0456    0.0000 C   0  0  0  0  0  0  0  0  0  0  0  0
    4.3742    5.8437    0.0000 C   0  0  0  0  0  0  0  0  0  0  0  0
    3.7234    7.1951    0.0000 C   0  0  0  0  0  0  0  0  0  0  0  0
    2.2276    7.3072    0.0000 O   0  0  0  0  0  0  0  0  0  0  0  0
    4.5684    8.4345    0.0000 N   0  0  0  0  0  0  0  0  0  0  0  0
    3.9175    9.7859    0.0000 C   0  0  0  0  0  0  0  0  0  0  0  0
    4.7625   11.0253    0.0000 C   0  0  0  0  0  0  0  0  0  0  0  0
    4.1117   12.3767    0.0000 C   0  0  0  0  0  0  0  0  0  0  0  0
    4.9567   13.6161    0.0000 C   0  0  0  0  0  0  0  0  0  0  0  0
    4.3059   14.9675    0.0000 C   0  0  0  0  0  0  0  0  0  0  0  0
    5.1508   16.2069    0.0000 N   0  0  0  0  0  0  0  0  0  0  0  0
    2.4217    9.8980    0.0000 C   0  0  0  0  0  0  0  0  0  0  0  0
    1.5768    8.6587    0.0000 O   0  0  0  0  0  0  0  0  0  0  0  0
    1.7709   11.2495    0.0000 N   0  0  0  0  0  0  0  0  0  0  0  0
    0.2751   11.3616    0.0000 C   0  0  0  0  0  0  0  0  0  0  0  0
   -0.3757   12.7130    0.0000 C   0  0  0  0  0  0  0  0  0  0  0  0
   -1.8715   12.8251    0.0000 C   0  0  0  0  0  0  0  0  0  0  0  0
   -2.5224   14.1766    0.0000 C   0  0  0  0  0  0  0  0  0  0  0  0
   -4.0182   14.2887    0.0000 N   0  0  0  0  0  0  0  0  0  0  0  0
   -4.6690   15.6401    0.0000 C   0  0  0  0  0  0  0  0  0  0  0  0
   -3.8240   16.8795    0.0000 N   0  0  0  0  0  0  0  0  0  0  0  0
   -6.1648   15.7522    0.0000 N   0  0  0  0  0  0  0  0  0  0  0  0
   -0.5699   10.1222    0.0000 C   0  0  0  0  0  0  0  0  0  0  0  0
    0.0810    8.7708    0.0000 O   0  0  0  0  0  0  0  0  0  0  0  0
   -2.0657   10.2343    0.0000 N   0  0  0  0  0  0  0  0  0  0  0  0
   -2.9107    8.9949    0.0000 C   0  0  0  0  0  0  0  0  0  0  0  0
   -4.4065    9.1070    0.0000 C   0  0  0  0  0  0  0  0  0  0  0  0
   -5.2514    7.8677    0.0000 C   0  0  0  0  0  0  0  0  0  0  0  0
   -6.7473    7.9798    0.0000 C   0  0  0  0  0  0  0  0  0  0  0  0
   -7.5922    6.7404    0.0000 C   0  0  0  0  0  0  0  0  0  0  0  0
   -6.9414    5.3890    0.0000 C   0  0  0  0  0  0  0  0  0  0  0  0
   -7.6761    4.7341    0.0000 F   0  0  0  0  0  0  0  0  0  0  0  0
   -5.4456    5.2769    0.0000 C   0  0  0  0  0  0  0  0  0  0  0  0
   -4.6006    6.5162    0.0000 C   0  0  0  0  0  0  0  0  0  0  0  0
   -2.2598    7.6435    0.0000 C   0  0  0  0  0  0  0  0  0  0  0  0
   -0.7640    7.5314    0.0000 O   0  0  0  0  0  0  0  0  0  0  0  0
   -3.1048    6.4041    0.0000 N   0  0  0  0  0  0  0  0  0  0  0  0
   -2.4540    5.0527    0.0000 C   0  0  0  0  0  0  0  0  0  0  0  0
   -3.2990    3.8133    0.0000 C   0  0  0  0  0  0  0  0  0  0  0  0
   -0.9582    4.9406    0.0000 C   0  0  0  0  0  0  0  0  0  0  0  0
   -0.1132    6.1799    0.0000 N   0  0  0  0  0  0  0  0  0  0  0  0
   -0.5684    3.7898    0.0000 O   0  0  0  0  0  0  0  0  0  0  0  0
    5.7900    6.3391    0.0000 N   0  0  0  0  0  0  0  0  0  0  0  0
    7.2806    6.5070    0.0000 C   0  0  0  0  0  0  0  0  0  0  0  0
    7.2806    8.0070    0.0000 O   0  0  0  0  0  0  0  0  0  0  0  0
    8.7712    6.3391    0.0000 C   0  0  0  0  0  0  0  0  0  0  0  0
    9.1050    7.8015    0.0000 C   0  0  0  0  0  0  0  0  0  0  0  0
   10.5383    8.2436    0.0000 C   0  0  0  0  0  0  0  0  0  0  0  0
   10.8721    9.7060    0.0000 C   0  0  0  0  0  0  0  0  0  0  0  0
   12.3055   10.1481    0.0000 N   0  0  0  0  0  0  0  0  0  0  0  0
   12.6392   11.6105    0.0000 C   0  0  0  0  0  0  0  0  0  0  0  0
   11.5397   12.6308    0.0000 N   0  0  0  0  0  0  0  0  0  0  0  0
   14.0726   12.0527    0.0000 N   0  0  0  0  0  0  0  0  0  0  0  0
   10.1870    5.8437    0.0000 N   0  0  0  0  0  0  0  0  0  0  0  0
   11.4571    5.0456    0.0000 C   0  0  0  0  0  0  0  0  0  0  0  0
   12.3923    6.2184    0.0000 O   0  0  0  0  0  0  0  0  0  0  0  0
   12.5177    3.9849    0.0000 C   0  0  0  0  0  0  0  0  0  0  0  0
   13.6905    4.9202    0.0000 C   0  0  0  0  0  0  0  0  0  0  0  0
   15.0868    4.3722    0.0000 C   0  0  0  0  0  0  0  0  0  0  0  0
   16.2596    5.3074    0.0000 C   0  0  0  0  0  0  0  0  0  0  0  0
   17.6559    4.7594    0.0000 N   0  0  0  0  0  0  0  0  0  0  0  0
   18.8286    5.6946    0.0000 C   0  0  0  0  0  0  0  0  0  0  0  0
   18.6050    7.1779    0.0000 N   0  0  0  0  0  0  0  0  0  0  0  0
   20.2249    5.1466    0.0000 N   0  0  0  0  0  0  0  0  0  0  0  0
   13.3158    2.7149    0.0000 N   0  0  0  0  0  0  0  0  0  0  0  0
   13.8112    1.2990    0.0000 C   0  0  0  0  0  0  0  0  0  0  0  0
   15.2736    1.6328    0.0000 O   0  0  0  0  0  0  0  0  0  0  0  0
  2  1  1  6
  2  3  1  0
  3  4  1  0
  4  5  2  0
  4  6  1  0
  6  7  1  1
  7  8  1  0
  8  9  2  0
  9 10  1  0
 10 11  2  0
 11 12  1  0
 12 13  2  0
  6 14  1  0
 14 15  1  0
 15 16  2  0
 15 17  1  0
 17 18  1  0
 18 19  1  0
 19 20  1  0
 20 21  1  0
 21 22  1  0
 22 23  1  0
 23 24  2  0
 23 25  1  0
 25 26  1  0
 26 27  2  0
 27 28  1  0
 28 29  2  0
 29 30  1  0
 29 31  1  0
 31 32  2  0
 31 33  1  0
 33 34  1  0
 34 35  1  1
 35 36  1  0
 36 37  2  0
 37 38  1  0
 38 39  2  0
 39 40  1  0
 40 41  2  0
 41 42  1  0
 42 43  2  0
 43 44  1  0
 44 45  2  0
 34 46  1  0
 46 47  2  0
 46 48  1  0
 48 49  1  0
 49 50  1  6
 50 51  1  0
 49 52  1  0
 52 53  2  0
 52 54  1  0
 54 55  1  0
 55 56  1  6
 56 57  1  0
 57 58  1  0
 57 59  2  0
 55 60  1  0
 60 61  2  0
 60 62  1  0
 62 63  1  0
 63 64  1  1
 64 65  1  0
 65 66  2  0
 66 67  1  0
 67 68  2  0
 68 69  1  0
 69 70  2  0
 70 71  1  0
 71 72  2  0
 72 73  1  0
 73 74  2  0
 63 75  1  0
 75 76  2  0
 75 77  1  0
 77 78  1  0
 78 79  1  6
 79 80  2  0
 80 81  1  0
 81 82  2  0
 82 83  1  0
 83 84  2  0
 78 85  1  0
 85 86  2  0
 85 87  1  0
 27 88  1  0
 88 89  2  0
 88 90  1  0
 90 91  1  0
 91 92  1  0
 92 93  1  1
 93 94  2  0
 93 95  1  0
 95 96  1  0
 96 97  1  6
 97 98  1  0
 98 99  1  0
 99100  1  0
100101  1  0
 96102  1  0
102103  2  0
102104  1  0
104105  1  0
105106  1  1
106107  1  0
107108  1  0
108109  1  0
109110  1  0
110111  2  0
110112  1  0
105113  1  0
113114  2  0
113115  1  0
115116  1  0
116117  1  6
117118  1  0
118119  2  0
119120  1  0
120121  2  0
121122  1  0
121123  1  0
123124  2  0
116125  1  0
125126  2  0
125127  1  0
127128  1  0
128129  1  1
128130  1  0
130131  1  0
130132  2  0
 92133  1  0
133134  1  0
134135  2  0
134136  1  0
136137  1  6
137138  1  0
138139  1  0
139140  1  0
140141  1  0
141142  2  0
141143  1  0
136144  1  0
144145  1  0
145146  2  0
145147  1  0
147148  1  1
148149  1  0
149150  1  0
150151  1  0
151152  1  0
152153  2  0
152154  1  0
147155  1  0
155156  1  0
156157  2  0
156  2  1  0
 13  8  1  0
 17 87  1  1
124118  1  0
 30 25  2  0
 45 36  1  0
 74 65  1  0
 84 79  1  0
 44 39  1  0
 73 68  1  0
M  END
>  <molecule_chembl_id>  (140) 
CHEMBL4871622

>  <canonical_smiles>  (140) 
C[C@@H]1NC(=O)[C@@H](Cc2ccccc2)NC(=O)[C@@H]2CCCCNC(=O)c3cc(cc(c3)C(=O)N[C@H](Cc3ccc4ccccc4c3)C(=O)N[C@@H](CO)C(=O)N[C@@H](CC(N)=O)C(=O)N[C@H](Cc3ccc4ccccc4c3)C(=O)N[C@@H](c3ccccc3)C(=O)N2)C(=O)NC[C@@H](C(=O)N[C@@H](CCCCN)C(=O)N[C@H](CCCNC(=N)N)C(=O)N[C@@H](Cc2ccc(F)cc2)C(=O)N[C@H](C)C(N)=O)NC(=O)[C@H](CCCNC(=N)N)NC(=O)[C@@H](CCCNC(=N)N)NC1=O

>  <pchembl_value_mean>  (140) 
5.96

>  <inchi>  (140) 
InChI=1S/C107H136FN29O20/c1-58(87(111)140)123-97(150)79(49-61-35-39-72(108)40-36-61)132-95(148)76(31-18-44-120-106(114)115)126-92(145)73(28-13-15-41-109)128-102(155)83-56-122-90(143)70-52-69-53-71(54-70)91(144)130-80(50-62-33-37-64-22-9-11-26-67(64)46-62)99(152)136-84(57-138)103(156)134-82(55-85(110)139)100(153)133-81(51-63-34-38-65-23-10-12-27-68(65)47-63)101(154)137-86(66-24-7-4-8-25-66)104(157)129-74(29-14-16-42-118-89(69)142)94(147)131-78(48-60-20-5-3-6-21-60)98(151)124-59(2)88(141)125-75(30-17-43-119-105(112)113)93(146)127-77(96(149)135-83)32-19-45-121-107(116)117/h3-12,20-27,33-40,46-47,52-54,58-59,73-84,86,138H,13-19,28-32,41-45,48-51,55-57,109H2,1-2H3,(H2,110,139)(H2,111,140)(H,118,142)(H,122,143)(H,123,150)(H,124,151)(H,125,141)(H,126,145)(H,127,146)(H,128,155)(H,129,157)(H,130,144)(H,131,147)(H,132,148)(H,133,153)(H,134,156)(H,135,149)(H,136,152)(H,137,154)(H4,112,113,119)(H4,114,115,120)(H4,116,117,121)/t58-,59+,73+,74+,75-,76-,77+,78-,79+,80-,81-,82+,83+,84+,86+/m1/s1

$$$$

     RDKit          2D

156165  0  0  0  0  0  0  0  0999 V2000
   15.4792   -0.1915    0.0000 C   0  0  0  0  0  0  0  0  0  0  0  0
   13.9792   -0.1915    0.0000 C   0  0  0  0  0  0  0  0  0  0  0  0
   13.8112   -1.6821    0.0000 N   0  0  0  0  0  0  0  0  0  0  0  0
   13.3158   -3.0979    0.0000 C   0  0  0  0  0  0  0  0  0  0  0  0
   14.6672   -3.7487    0.0000 O   0  0  0  0  0  0  0  0  0  0  0  0
   12.5177   -4.3680    0.0000 C   0  0  0  0  0  0  0  0  0  0  0  0
   13.6905   -5.3032    0.0000 C   0  0  0  0  0  0  0  0  0  0  0  0
   13.4669   -6.7865    0.0000 C   0  0  0  0  0  0  0  0  0  0  0  0
   12.0706   -7.3345    0.0000 C   0  0  0  0  0  0  0  0  0  0  0  0
   11.8471   -8.8177    0.0000 C   0  0  0  0  0  0  0  0  0  0  0  0
   13.0198   -9.7530    0.0000 C   0  0  0  0  0  0  0  0  0  0  0  0
   14.4161   -9.2050    0.0000 C   0  0  0  0  0  0  0  0  0  0  0  0
   14.6397   -7.7217    0.0000 C   0  0  0  0  0  0  0  0  0  0  0  0
   11.4571   -5.4287    0.0000 N   0  0  0  0  0  0  0  0  0  0  0  0
   10.1870   -6.2267    0.0000 C   0  0  0  0  0  0  0  0  0  0  0  0
   10.8378   -7.5782    0.0000 O   0  0  0  0  0  0  0  0  0  0  0  0
    8.7712   -6.7221    0.0000 C   0  0  0  0  0  0  0  0  0  0  0  0
    7.2806   -6.8901    0.0000 C   0  0  0  0  0  0  0  0  0  0  0  0
    5.7900   -6.7221    0.0000 C   0  0  0  0  0  0  0  0  0  0  0  0
    4.3742   -6.2267    0.0000 C   0  0  0  0  0  0  0  0  0  0  0  0
    3.1041   -5.4287    0.0000 C   0  0  0  0  0  0  0  0  0  0  0  0
    2.0435   -4.3680    0.0000 N   0  0  0  0  0  0  0  0  0  0  0  0
    1.2454   -3.0979    0.0000 C   0  0  0  0  0  0  0  0  0  0  0  0
   -0.1060   -3.7487    0.0000 O   0  0  0  0  0  0  0  0  0  0  0  0
    0.7500   -1.2990    0.0000 C   0  0  0  0  0  0  0  0  0  0  0  0
    1.5000    0.0000    0.0000 C   0  0  0  0  0  0  0  0  0  0  0  0
    0.7500    1.2990    0.0000 C   0  0  0  0  0  0  0  0  0  0  0  0
   -0.7500    1.2990    0.0000 C   0  0  0  0  0  0  0  0  0  0  0  0
   -1.5000    0.0000    0.0000 C   0  0  0  0  0  0  0  0  0  0  0  0
   -0.7500   -1.2990    0.0000 C   0  0  0  0  0  0  0  0  0  0  0  0
   -2.3002   -1.3623    0.0000 C   0  0  0  0  0  0  0  0  0  0  0  0
   -3.7181    0.3198    0.0000 O   0  0  0  0  0  0  0  0  0  0  0  0
   -3.2158   -2.3372    0.0000 N   0  0  0  0  0  0  0  0  0  0  0  0
   -3.8819   -3.4970    0.0000 C   0  0  0  0  0  0  0  0  0  0  0  0
   -5.9040   -2.6302    0.0000 C   0  0  0  0  0  0  0  0  0  0  0  0
   -6.0815   -1.1408    0.0000 C   0  0  0  0  0  0  0  0  0  0  0  0
   -4.8803   -0.2423    0.0000 C   0  0  0  0  0  0  0  0  0  0  0  0
   -5.0578    1.2471    0.0000 C   0  0  0  0  0  0  0  0  0  0  0  0
   -6.4365    1.8381    0.0000 C   0  0  0  0  0  0  0  0  0  0  0  0
   -6.6140    3.3276    0.0000 C   0  0  0  0  0  0  0  0  0  0  0  0
   -7.9927    3.9186    0.0000 C   0  0  0  0  0  0  0  0  0  0  0  0
   -9.1939    3.0201    0.0000 C   0  0  0  0  0  0  0  0  0  0  0  0
   -9.0163    1.5307    0.0000 C   0  0  0  0  0  0  0  0  0  0  0  0
   -7.6377    0.9397    0.0000 C   0  0  0  0  0  0  0  0  0  0  0  0
   -7.4602   -0.5498    0.0000 C   0  0  0  0  0  0  0  0  0  0  0  0
   -4.2626   -4.7792    0.0000 C   0  0  0  0  0  0  0  0  0  0  0  0
   -6.4300   -4.4021    0.0000 O   0  0  0  0  0  0  0  0  0  0  0  0
   -4.3373   -6.1146    0.0000 N   0  0  0  0  0  0  0  0  0  0  0  0
   -4.1021   -7.4312    0.0000 C   0  0  0  0  0  0  0  0  0  0  0  0
   -6.2082   -8.0669    0.0000 C   0  0  0  0  0  0  0  0  0  0  0  0
   -7.3016   -7.0400    0.0000 O   0  0  0  0  0  0  0  0  0  0  0  0
   -3.5696   -8.6581    0.0000 C   0  0  0  0  0  0  0  0  0  0  0  0
   -5.4723   -9.7624    0.0000 O   0  0  0  0  0  0  0  0  0  0  0  0
   -2.7685   -9.7291    0.0000 N   0  0  0  0  0  0  0  0  0  0  0  0
   -1.7420  -10.5864    0.0000 C   0  0  0  0  0  0  0  0  0  0  0  0
   -2.9467  -12.4273    0.0000 C   0  0  0  0  0  0  0  0  0  0  0  0
   -4.4444  -12.3434    0.0000 C   0  0  0  0  0  0  0  0  0  0  0  0
   -5.2658  -13.5985    0.0000 N   0  0  0  0  0  0  0  0  0  0  0  0
   -5.1206  -11.0045    0.0000 O   0  0  0  0  0  0  0  0  0  0  0  0
   -0.5454  -11.1840    0.0000 C   0  0  0  0  0  0  0  0  0  0  0  0
   -1.2931  -13.2530    0.0000 O   0  0  0  0  0  0  0  0  0  0  0  0
    0.7567  -11.4895    0.0000 N   0  0  0  0  0  0  0  0  0  0  0  0
    2.0942  -11.4864    0.0000 C   0  0  0  0  0  0  0  0  0  0  0  0
    2.3546  -13.6710    0.0000 C   0  0  0  0  0  0  0  0  0  0  0  0
    1.1534  -14.5694    0.0000 C   0  0  0  0  0  0  0  0  0  0  0  0
   -0.2253  -13.9785    0.0000 C   0  0  0  0  0  0  0  0  0  0  0  0
   -1.4264  -14.8769    0.0000 C   0  0  0  0  0  0  0  0  0  0  0  0
   -1.2489  -16.3664    0.0000 C   0  0  0  0  0  0  0  0  0  0  0  0
   -2.4501  -17.2648    0.0000 C   0  0  0  0  0  0  0  0  0  0  0  0
   -2.2725  -18.7543    0.0000 C   0  0  0  0  0  0  0  0  0  0  0  0
   -0.8939  -19.3453    0.0000 C   0  0  0  0  0  0  0  0  0  0  0  0
    0.3073  -18.4468    0.0000 C   0  0  0  0  0  0  0  0  0  0  0  0
    0.1298  -16.9574    0.0000 C   0  0  0  0  0  0  0  0  0  0  0  0
    1.3309  -16.0589    0.0000 C   0  0  0  0  0  0  0  0  0  0  0  0
    3.3949  -11.1751    0.0000 C   0  0  0  0  0  0  0  0  0  0  0  0
    4.1520  -13.2407    0.0000 O   0  0  0  0  0  0  0  0  0  0  0  0
    4.5887  -10.5721    0.0000 N   0  0  0  0  0  0  0  0  0  0  0  0
    5.6114   -9.7101    0.0000 C   0  0  0  0  0  0  0  0  0  0  0  0
    7.2150  -11.2162    0.0000 C   0  0  0  0  0  0  0  0  0  0  0  0
    6.8724  -12.6765    0.0000 C   0  0  0  0  0  0  0  0  0  0  0  0
    7.9658  -13.7034    0.0000 C   0  0  0  0  0  0  0  0  0  0  0  0
    9.4018  -13.2699    0.0000 C   0  0  0  0  0  0  0  0  0  0  0  0
    9.7444  -11.8096    0.0000 C   0  0  0  0  0  0  0  0  0  0  0  0
    8.6510  -10.7827    0.0000 C   0  0  0  0  0  0  0  0  0  0  0  0
    6.4076   -8.6354    0.0000 C   0  0  0  0  0  0  0  0  0  0  0  0
    8.3154   -9.7311    0.0000 O   0  0  0  0  0  0  0  0  0  0  0  0
    8.1358   -8.0625    0.0000 N   0  0  0  0  0  0  0  0  0  0  0  0
    1.2454    2.7149    0.0000 C   0  0  0  0  0  0  0  0  0  0  0  0
   -0.1060    3.3657    0.0000 O   0  0  0  0  0  0  0  0  0  0  0  0
    2.0435    3.9849    0.0000 N   0  0  0  0  0  0  0  0  0  0  0  0
    3.1041    5.0456    0.0000 C   0  0  0  0  0  0  0  0  0  0  0  0
    4.3742    5.8437    0.0000 C   0  0  0  0  0  0  0  0  0  0  0  0
    3.7234    7.1951    0.0000 C   0  0  0  0  0  0  0  0  0  0  0  0
    2.2276    7.3072    0.0000 O   0  0  0  0  0  0  0  0  0  0  0  0
    4.5684    8.4345    0.0000 N   0  0  0  0  0  0  0  0  0  0  0  0
    3.9175    9.7859    0.0000 C   0  0  0  0  0  0  0  0  0  0  0  0
    4.7625   11.0253    0.0000 C   0  0  0  0  0  0  0  0  0  0  0  0
    4.1117   12.3767    0.0000 C   0  0  0  0  0  0  0  0  0  0  0  0
    4.9567   13.6161    0.0000 N   0  0  0  0  0  0  0  0  0  0  0  0
    2.4217    9.8980    0.0000 C   0  0  0  0  0  0  0  0  0  0  0  0
    1.7709   11.2495    0.0000 C   0  0  0  0  0  0  0  0  0  0  0  0
    2.6159   12.4888    0.0000 O   0  0  0  0  0  0  0  0  0  0  0  0
    0.2751   11.3616    0.0000 N   0  0  0  0  0  0  0  0  0  0  0  0
   -0.3757   12.7130    0.0000 C   0  0  0  0  0  0  0  0  0  0  0  0
   -1.8715   12.8251    0.0000 C   0  0  0  0  0  0  0  0  0  0  0  0
   -2.5224   14.1766    0.0000 C   0  0  0  0  0  0  0  0  0  0  0  0
   -4.0182   14.2887    0.0000 C   0  0  0  0  0  0  0  0  0  0  0  0
   -4.6690   15.6401    0.0000 N   0  0  0  0  0  0  0  0  0  0  0  0
   -6.1648   15.7522    0.0000 C   0  0  0  0  0  0  0  0  0  0  0  0
   -7.0098   14.5129    0.0000 N   0  0  0  0  0  0  0  0  0  0  0  0
   -6.8156   17.1037    0.0000 N   0  0  0  0  0  0  0  0  0  0  0  0
    0.4693   13.9524    0.0000 C   0  0  0  0  0  0  0  0  0  0  0  0
    1.9651   13.8403    0.0000 O   0  0  0  0  0  0  0  0  0  0  0  0
   -0.1816   15.3038    0.0000 N   0  0  0  0  0  0  0  0  0  0  0  0
    0.6634   16.5432    0.0000 C   0  0  0  0  0  0  0  0  0  0  0  0
    0.0126   17.8946    0.0000 C   0  0  0  0  0  0  0  0  0  0  0  0
    0.8576   19.1340    0.0000 C   0  0  0  0  0  0  0  0  0  0  0  0
    2.3534   19.0219    0.0000 C   0  0  0  0  0  0  0  0  0  0  0  0
    3.1984   20.2613    0.0000 C   0  0  0  0  0  0  0  0  0  0  0  0
    2.5475   21.6127    0.0000 C   0  0  0  0  0  0  0  0  0  0  0  0
    3.3925   22.8521    0.0000 O   0  0  0  0  0  0  0  0  0  0  0  0
    1.0517   21.7248    0.0000 C   0  0  0  0  0  0  0  0  0  0  0  0
    0.2067   20.4855    0.0000 C   0  0  0  0  0  0  0  0  0  0  0  0
    2.1592   16.4311    0.0000 C   0  0  0  0  0  0  0  0  0  0  0  0
    2.8100   15.0796    0.0000 O   0  0  0  0  0  0  0  0  0  0  0  0
    3.0042   17.6705    0.0000 N   0  0  0  0  0  0  0  0  0  0  0  0
    4.5000   17.5584    0.0000 C   0  0  0  0  0  0  0  0  0  0  0  0
    5.3450   18.7977    0.0000 C   0  0  0  0  0  0  0  0  0  0  0  0
    5.1508   16.2069    0.0000 C   0  0  0  0  0  0  0  0  0  0  0  0
    6.6466   16.0948    0.0000 N   0  0  0  0  0  0  0  0  0  0  0  0
    4.3059   14.9675    0.0000 O   0  0  0  0  0  0  0  0  0  0  0  0
    5.7900    6.3391    0.0000 N   0  0  0  0  0  0  0  0  0  0  0  0
    7.2806    6.5070    0.0000 C   0  0  0  0  0  0  0  0  0  0  0  0
    7.2806    8.0070    0.0000 O   0  0  0  0  0  0  0  0  0  0  0  0
    8.7712    6.3391    0.0000 C   0  0  0  0  0  0  0  0  0  0  0  0
    9.1050    7.8015    0.0000 C   0  0  0  0  0  0  0  0  0  0  0  0
   10.5383    8.2436    0.0000 C   0  0  0  0  0  0  0  0  0  0  0  0
   10.8721    9.7060    0.0000 C   0  0  0  0  0  0  0  0  0  0  0  0
   12.3055   10.1481    0.0000 N   0  0  0  0  0  0  0  0  0  0  0  0
   12.6392   11.6105    0.0000 C   0  0  0  0  0  0  0  0  0  0  0  0
   11.5397   12.6308    0.0000 N   0  0  0  0  0  0  0  0  0  0  0  0
   14.0726   12.0527    0.0000 N   0  0  0  0  0  0  0  0  0  0  0  0
   10.1870    5.8437    0.0000 N   0  0  0  0  0  0  0  0  0  0  0  0
   11.4571    5.0456    0.0000 C   0  0  0  0  0  0  0  0  0  0  0  0
   12.3923    6.2184    0.0000 O   0  0  0  0  0  0  0  0  0  0  0  0
   12.5177    3.9849    0.0000 C   0  0  0  0  0  0  0  0  0  0  0  0
   13.6905    4.9202    0.0000 C   0  0  0  0  0  0  0  0  0  0  0  0
   15.0868    4.3722    0.0000 C   0  0  0  0  0  0  0  0  0  0  0  0
   16.2596    5.3074    0.0000 C   0  0  0  0  0  0  0  0  0  0  0  0
   17.6559    4.7594    0.0000 N   0  0  0  0  0  0  0  0  0  0  0  0
   18.8286    5.6946    0.0000 C   0  0  0  0  0  0  0  0  0  0  0  0
   18.6050    7.1779    0.0000 N   0  0  0  0  0  0  0  0  0  0  0  0
   20.2249    5.1466    0.0000 N   0  0  0  0  0  0  0  0  0  0  0  0
   13.3158    2.7149    0.0000 N   0  0  0  0  0  0  0  0  0  0  0  0
   13.8112    1.2990    0.0000 C   0  0  0  0  0  0  0  0  0  0  0  0
   15.2736    1.6328    0.0000 O   0  0  0  0  0  0  0  0  0  0  0  0
  2  1  1  6
  2  3  1  0
  3  4  1  0
  4  5  2  0
  4  6  1  0
  6  7  1  1
  7  8  1  0
  8  9  2  0
  9 10  1  0
 10 11  2  0
 11 12  1  0
 12 13  2  0
  6 14  1  0
 14 15  1  0
 15 16  2  0
 15 17  1  0
 17 18  1  0
 18 19  1  0
 19 20  1  0
 20 21  1  0
 21 22  1  0
 22 23  1  0
 23 24  2  0
 23 25  1  0
 25 26  1  0
 26 27  2  0
 27 28  1  0
 28 29  2  0
 29 30  1  0
 29 31  1  0
 31 32  2  0
 31 33  1  0
 33 34  1  0
 34 35  1  1
 35 36  1  0
 36 37  2  0
 37 38  1  0
 38 39  2  0
 39 40  1  0
 40 41  2  0
 41 42  1  0
 42 43  2  0
 43 44  1  0
 44 45  2  0
 34 46  1  0
 46 47  2  0
 46 48  1  0
 48 49  1  0
 49 50  1  6
 50 51  1  0
 49 52  1  0
 52 53  2  0
 52 54  1  0
 54 55  1  0
 55 56  1  6
 56 57  1  0
 57 58  1  0
 57 59  2  0
 55 60  1  0
 60 61  2  0
 60 62  1  0
 62 63  1  0
 63 64  1  1
 64 65  1  0
 65 66  2  0
 66 67  1  0
 67 68  2  0
 68 69  1  0
 69 70  2  0
 70 71  1  0
 71 72  2  0
 72 73  1  0
 73 74  2  0
 63 75  1  0
 75 76  2  0
 75 77  1  0
 77 78  1  0
 78 79  1  6
 79 80  2  0
 80 81  1  0
 81 82  2  0
 82 83  1  0
 83 84  2  0
 78 85  1  0
 85 86  2  0
 85 87  1  0
 27 88  1  0
 88 89  2  0
 88 90  1  0
 90 91  1  0
 91 92  1  0
 92 93  1  1
 93 94  2  0
 93 95  1  0
 95 96  1  0
 96 97  1  6
 97 98  1  0
 98 99  1  0
 96100  1  0
100101  1  0
101102  2  0
101103  1  0
103104  1  0
104105  1  6
105106  1  0
106107  1  0
107108  1  0
108109  1  0
109110  2  0
109111  1  0
104112  1  0
112113  2  0
112114  1  0
114115  1  0
115116  1  1
116117  1  0
117118  2  0
118119  1  0
119120  2  0
120121  1  0
120122  1  0
122123  2  0
115124  1  0
124125  2  0
124126  1  0
126127  1  0
127128  1  6
127129  1  0
129130  1  0
129131  2  0
 92132  1  0
132133  1  0
133134  2  0
133135  1  0
135136  1  6
136137  1  0
137138  1  0
138139  1  0
139140  1  0
140141  2  0
140142  1  0
135143  1  0
143144  1  0
144145  2  0
144146  1  0
146147  1  1
147148  1  0
148149  1  0
149150  1  0
150151  1  0
151152  2  0
151153  1  0
146154  1  0
154155  1  0
155156  2  0
155  2  1  0
 13  8  1  0
 17 87  1  1
123117  1  0
 30 25  2  0
 45 36  1  0
 74 65  1  0
 84 79  1  0
 44 39  1  0
 73 68  1  0
M  END
>  <molecule_chembl_id>  (141) 
CHEMBL4867656

>  <canonical_smiles>  (141) 
C[C@@H]1NC(=O)[C@@H](Cc2ccccc2)NC(=O)[C@@H]2CCCCNC(=O)c3cc(cc(c3)C(=O)N[C@H](Cc3ccc4ccccc4c3)C(=O)N[C@@H](CO)C(=O)N[C@@H](CC(N)=O)C(=O)N[C@H](Cc3ccc4ccccc4c3)C(=O)N[C@@H](c3ccccc3)C(=O)N2)C(=O)NC[C@@H](C(=O)N[C@@H](CCN)CC(=O)N[C@H](CCCNC(=N)N)C(=O)N[C@@H](Cc2ccc(O)cc2)C(=O)N[C@H](C)C(N)=O)NC(=O)[C@H](CCCNC(=N)N)NC(=O)[C@@H](CCCNC(=N)N)NC1=O

>  <pchembl_value_mean>  (141) 
5.96

>  <inchi>  (141) 
InChI=1S/C106H135N29O21/c1-57(87(109)140)121-96(149)78(47-60-32-36-72(137)37-33-60)129-92(145)73(27-15-41-117-104(110)111)124-85(139)53-71(38-39-107)123-101(154)82-55-120-90(143)69-50-68-51-70(52-69)91(144)128-79(48-61-30-34-63-20-9-11-24-66(63)44-61)98(151)134-83(56-136)102(155)132-81(54-84(108)138)99(152)131-80(49-62-31-35-64-21-10-12-25-67(64)45-62)100(153)135-86(65-22-7-4-8-23-65)103(156)127-74(26-13-14-40-116-89(68)142)94(147)130-77(46-59-18-5-3-6-19-59)97(150)122-58(2)88(141)125-75(28-16-42-118-105(112)113)93(146)126-76(95(148)133-82)29-17-43-119-106(114)115/h3-12,18-25,30-37,44-45,50-52,57-58,71,73-83,86,136-137H,13-17,26-29,38-43,46-49,53-56,107H2,1-2H3,(H2,108,138)(H2,109,140)(H,116,142)(H,120,143)(H,121,149)(H,122,150)(H,123,154)(H,124,139)(H,125,141)(H,126,146)(H,127,156)(H,128,144)(H,129,145)(H,130,147)(H,131,152)(H,132,155)(H,133,148)(H,134,151)(H,135,153)(H4,110,111,117)(H4,112,113,118)(H4,114,115,119)/t57-,58+,71+,73-,74+,75-,76+,77-,78+,79-,80-,81+,82+,83+,86+/m1/s1

$$$$

     RDKit          2D

 39 44  0  0  0  0  0  0  0  0999 V2000
    9.7500   -3.8971    0.0000 C   0  0  0  0  0  0  0  0  0  0  0  0
    8.2500   -3.8971    0.0000 C   0  0  0  0  0  0  0  0  0  0  0  0
    7.5000   -2.5981    0.0000 C   0  0  0  0  0  0  0  0  0  0  0  0
    8.2500   -1.2990    0.0000 O   0  0  0  0  0  0  0  0  0  0  0  0
    6.0000   -2.5981    0.0000 N   0  0  0  0  0  0  0  0  0  0  0  0
    5.2500   -3.8971    0.0000 C   0  0  0  0  0  0  0  0  0  0  0  0
    3.7500   -3.8971    0.0000 C   0  0  0  0  0  0  0  0  0  0  0  0
    3.0000   -2.5981    0.0000 N   0  0  0  0  0  0  0  0  0  0  0  0
    1.5000   -2.5981    0.0000 C   0  0  0  0  0  0  0  0  0  0  0  0
    0.7500   -3.8971    0.0000 N   0  0  0  0  0  0  0  0  0  0  0  0
   -0.7500   -3.8971    0.0000 C   0  0  0  0  0  0  0  0  0  0  0  0
   -1.5000   -5.1962    0.0000 O   0  0  0  0  0  0  0  0  0  0  0  0
   -3.0000   -5.1962    0.0000 C   0  0  0  0  0  0  0  0  0  0  0  0
   -3.7500   -6.4952    0.0000 C   0  0  0  0  0  0  0  0  0  0  0  0
   -3.1399   -7.8655    0.0000 C   0  0  0  0  0  0  0  0  0  0  0  0
   -4.2546   -8.8692    0.0000 C   0  0  0  0  0  0  0  0  0  0  0  0
   -5.5537   -8.1192    0.0000 C   0  0  0  0  0  0  0  0  0  0  0  0
   -5.2418   -6.6520    0.0000 N   0  0  0  0  0  0  0  0  0  0  0  0
   -6.2455   -5.5373    0.0000 C   0  0  0  0  0  0  0  0  0  0  0  0
   -1.5000   -2.5981    0.0000 N   0  0  0  0  0  0  0  0  0  0  0  0
   -0.7500   -1.2990    0.0000 C   0  0  0  0  0  0  0  0  0  0  0  0
    0.7500   -1.2990    0.0000 C   0  0  0  0  0  0  0  0  0  0  0  0
    1.5000    0.0000    0.0000 C   0  0  0  0  0  0  0  0  0  0  0  0
    0.7500    1.2990    0.0000 C   0  0  0  0  0  0  0  0  0  0  0  0
   -0.7500    1.2990    0.0000 N   0  0  0  0  0  0  0  0  0  0  0  0
   -1.5000    2.5981    0.0000 C   0  0  0  0  0  0  0  0  0  0  0  0
   -3.0000    2.5981    0.0000 C   0  0  0  0  0  0  0  0  0  0  0  0
   -3.7500    1.2990    0.0000 C   0  0  0  0  0  0  0  0  0  0  0  0
   -5.2500    1.2990    0.0000 C   0  0  0  0  0  0  0  0  0  0  0  0
   -3.7500    3.8971    0.0000 C   0  0  0  0  0  0  0  0  0  0  0  0
   -3.0000    5.1962    0.0000 C   0  0  0  0  0  0  0  0  0  0  0  0
   -1.5000    5.1962    0.0000 C   0  0  0  0  0  0  0  0  0  0  0  0
   -0.4963    6.3109    0.0000 N   0  0  0  0  0  0  0  0  0  0  0  0
    0.8740    5.7008    0.0000 N   0  0  0  0  0  0  0  0  0  0  0  0
    0.7172    4.2090    0.0000 C   0  0  0  0  0  0  0  0  0  0  0  0
   -0.7500    3.8971    0.0000 C   0  0  0  0  0  0  0  0  0  0  0  0
   -1.5000    0.0000    0.0000 C   0  0  0  0  0  0  0  0  0  0  0  0
    3.7500   -1.2990    0.0000 C   0  0  0  0  0  0  0  0  0  0  0  0
    5.2500   -1.2990    0.0000 C   0  0  0  0  0  0  0  0  0  0  0  0
  1  2  2  0
  2  3  1  0
  3  4  2  0
  3  5  1  0
  5  6  1  0
  6  7  1  0
  7  8  1  0
  8  9  1  0
  9 10  2  0
 10 11  1  0
 11 12  1  0
 12 13  1  0
 14 13  1  6
 14 15  1  0
 15 16  1  0
 16 17  1  0
 17 18  1  0
 18 19  1  0
 11 20  2  0
 20 21  1  0
 21 22  2  0
 22 23  1  0
 23 24  1  0
 24 25  1  0
 25 26  1  0
 26 27  2  0
 27 28  1  0
 28 29  1  0
 27 30  1  0
 30 31  2  0
 31 32  1  0
 32 33  1  0
 33 34  1  0
 34 35  2  0
 35 36  1  0
 25 37  1  0
  8 38  1  0
 38 39  1  0
 39  5  1  0
 22  9  1  0
 36 26  1  0
 18 14  1  0
 37 21  1  0
 36 32  2  0
M  END
>  <molecule_chembl_id>  (142) 
CHEMBL4637314

>  <canonical_smiles>  (142) 
C=CC(=O)N1CCN(c2nc(OC[C@@H]3CCCN3C)nc3c2CCN(c2c(CC)ccc4[nH]ncc24)C3)CC1

>  <pchembl_value_mean>  (142) 
5.97

>  <inchi>  (142) 
InChI=1S/C29H38N8O2/c1-4-20-8-9-24-23(17-30-33-24)27(20)37-12-10-22-25(18-37)31-29(39-19-21-7-6-11-34(21)3)32-28(22)36-15-13-35(14-16-36)26(38)5-2/h5,8-9,17,21H,2,4,6-7,10-16,18-19H2,1,3H3,(H,30,33)/t21-/m0/s1

$$$$

     RDKit          2D

 41 46  0  0  0  0  0  0  0  0999 V2000
    9.7500   -3.8971    0.0000 C   0  0  0  0  0  0  0  0  0  0  0  0
    8.2500   -3.8971    0.0000 C   0  0  0  0  0  0  0  0  0  0  0  0
    7.5000   -2.5981    0.0000 C   0  0  0  0  0  0  0  0  0  0  0  0
    8.2500   -1.2990    0.0000 O   0  0  0  0  0  0  0  0  0  0  0  0
    6.0000   -2.5981    0.0000 N   0  0  0  0  0  0  0  0  0  0  0  0
    5.2500   -3.8971    0.0000 C   0  0  0  0  0  0  0  0  0  0  0  0
    3.7500   -3.8971    0.0000 C   0  0  0  0  0  0  0  0  0  0  0  0
    3.0000   -2.5981    0.0000 N   0  0  0  0  0  0  0  0  0  0  0  0
    1.5000   -2.5981    0.0000 C   0  0  0  0  0  0  0  0  0  0  0  0
    0.7500   -3.8971    0.0000 N   0  0  0  0  0  0  0  0  0  0  0  0
   -0.7500   -3.8971    0.0000 C   0  0  0  0  0  0  0  0  0  0  0  0
   -1.5000   -5.1962    0.0000 O   0  0  0  0  0  0  0  0  0  0  0  0
   -3.0000   -5.1962    0.0000 C   0  0  0  0  0  0  0  0  0  0  0  0
   -3.7500   -6.4952    0.0000 C   0  0  0  0  0  0  0  0  0  0  0  0
   -3.1399   -7.8655    0.0000 C   0  0  0  0  0  0  0  0  0  0  0  0
   -4.2546   -8.8692    0.0000 C   0  0  0  0  0  0  0  0  0  0  0  0
   -5.5537   -8.1192    0.0000 C   0  0  0  0  0  0  0  0  0  0  0  0
   -5.2418   -6.6520    0.0000 N   0  0  0  0  0  0  0  0  0  0  0  0
   -6.2455   -5.5373    0.0000 C   0  0  0  0  0  0  0  0  0  0  0  0
   -1.5000   -2.5981    0.0000 N   0  0  0  0  0  0  0  0  0  0  0  0
   -0.7500   -1.2990    0.0000 C   0  0  0  0  0  0  0  0  0  0  0  0
    0.7500   -1.2990    0.0000 C   0  0  0  0  0  0  0  0  0  0  0  0
    1.5000    0.0000    0.0000 C   0  0  0  0  0  0  0  0  0  0  0  0
    0.7500    1.2990    0.0000 C   0  0  0  0  0  0  0  0  0  0  0  0
   -0.7500    1.2990    0.0000 N   0  0  0  0  0  0  0  0  0  0  0  0
   -1.5000    2.5981    0.0000 C   0  0  0  0  0  0  0  0  0  0  0  0
   -3.0000    2.5981    0.0000 C   0  0  0  0  0  0  0  0  0  0  0  0
   -3.7500    3.8971    0.0000 C   0  0  0  0  0  0  0  0  0  0  0  0
   -3.0000    5.1962    0.0000 C   0  0  0  0  0  0  0  0  0  0  0  0
   -1.5000    5.1962    0.0000 C   0  0  0  0  0  0  0  0  0  0  0  0
   -0.7500    6.4952    0.0000 C   0  0  0  0  0  0  0  0  0  0  0  0
    0.7500    6.4952    0.0000 C   0  0  0  0  0  0  0  0  0  0  0  0
    1.5000    5.1962    0.0000 C   0  0  0  0  0  0  0  0  0  0  0  0
    0.7500    3.8971    0.0000 C   0  0  0  0  0  0  0  0  0  0  0  0
   -0.7500    3.8971    0.0000 C   0  0  0  0  0  0  0  0  0  0  0  0
   -1.5000    0.0000    0.0000 C   0  0  0  0  0  0  0  0  0  0  0  0
    3.7500   -1.2990    0.0000 C   0  0  0  0  0  0  0  0  0  0  0  0
    5.2500   -1.2990    0.0000 C   0  0  0  0  0  0  0  0  0  0  0  0
    6.0000   -0.0000    0.0000 C   0  0  0  0  0  0  0  0  0  0  0  0
    5.2500    1.2990    0.0000 C   0  0  0  0  0  0  0  0  0  0  0  0
    4.5000    2.5981    0.0000 N   0  0  0  0  0  0  0  0  0  0  0  0
  1  2  2  0
  2  3  1  0
  3  4  2  0
  3  5  1  0
  5  6  1  0
  6  7  1  0
  7  8  1  0
  8  9  1  0
  9 10  2  0
 10 11  1  0
 11 12  1  0
 12 13  1  0
 14 13  1  6
 14 15  1  0
 15 16  1  0
 16 17  1  0
 17 18  1  0
 18 19  1  0
 11 20  2  0
 20 21  1  0
 21 22  2  0
 22 23  1  0
 23 24  1  0
 24 25  1  0
 25 26  1  0
 26 27  2  0
 27 28  1  0
 28 29  2  0
 29 30  1  0
 30 31  2  0
 31 32  1  0
 32 33  2  0
 33 34  1  0
 34 35  2  0
 25 36  1  0
  8 37  1  0
 37 38  1  0
 38 39  1  1
 39 40  1  0
 40 41  3  0
 38  5  1  0
 22  9  1  0
 35 26  1  0
 18 14  1  0
 36 21  1  0
 35 30  1  0
M  END
>  <molecule_chembl_id>  (143) 
CHEMBL4649703

>  <canonical_smiles>  (143) 
C=CC(=O)N1CCN(c2nc(OC[C@@H]3CCCN3C)nc3c2CCN(c2cccc4ccccc24)C3)C[C@H]1CC#N

>  <pchembl_value_mean>  (143) 
5.99

>  <inchi>  (143) 
InChI=1S/C32H37N7O2/c1-3-30(40)39-19-18-38(20-24(39)13-15-33)31-27-14-17-37(29-12-6-9-23-8-4-5-11-26(23)29)21-28(27)34-32(35-31)41-22-25-10-7-16-36(25)2/h3-6,8-9,11-12,24-25H,1,7,10,13-14,16-22H2,2H3/t24-,25+/m1/s1

$$$$

     RDKit          2D

160169  0  0  0  0  0  0  0  0999 V2000
   10.7457  -10.5769    0.0000 C   0  0  0  0  0  0  0  0  0  0  0  0
    9.2499  -10.6890    0.0000 C   0  0  0  0  0  0  0  0  0  0  0  0
    8.5991  -12.0404    0.0000 N   0  0  0  0  0  0  0  0  0  0  0  0
    7.1033  -12.1525    0.0000 C   0  0  0  0  0  0  0  0  0  0  0  0
    6.2583  -10.9132    0.0000 O   0  0  0  0  0  0  0  0  0  0  0  0
    6.4525  -13.5040    0.0000 C   0  0  0  0  0  0  0  0  0  0  0  0
    7.2975  -14.7434    0.0000 C   0  0  0  0  0  0  0  0  0  0  0  0
    8.7933  -14.6313    0.0000 C   0  0  0  0  0  0  0  0  0  0  0  0
    9.6382  -15.8706    0.0000 C   0  0  0  0  0  0  0  0  0  0  0  0
   11.1341  -15.7585    0.0000 C   0  0  0  0  0  0  0  0  0  0  0  0
   11.7849  -14.4071    0.0000 C   0  0  0  0  0  0  0  0  0  0  0  0
   10.9399  -13.1677    0.0000 C   0  0  0  0  0  0  0  0  0  0  0  0
    9.4441  -13.2798    0.0000 C   0  0  0  0  0  0  0  0  0  0  0  0
    4.9567  -13.6161    0.0000 N   0  0  0  0  0  0  0  0  0  0  0  0
    4.1117  -12.3767    0.0000 C   0  0  0  0  0  0  0  0  0  0  0  0
    4.7625  -11.0253    0.0000 O   0  0  0  0  0  0  0  0  0  0  0  0
    2.6159  -12.4888    0.0000 C   0  0  0  0  0  0  0  0  0  0  0  0
    1.9651  -13.8403    0.0000 C   0  0  0  0  0  0  0  0  0  0  0  0
    2.8100  -15.0796    0.0000 C   0  0  0  0  0  0  0  0  0  0  0  0
    2.1592  -16.4311    0.0000 C   0  0  0  0  0  0  0  0  0  0  0  0
    3.0042  -17.6705    0.0000 N   0  0  0  0  0  0  0  0  0  0  0  0
    2.3534  -19.0219    0.0000 C   0  0  0  0  0  0  0  0  0  0  0  0
    0.8576  -19.1340    0.0000 N   0  0  0  0  0  0  0  0  0  0  0  0
    3.1984  -20.2613    0.0000 N   0  0  0  0  0  0  0  0  0  0  0  0
    1.7709  -11.2495    0.0000 N   0  0  0  0  0  0  0  0  0  0  0  0
    2.4217   -9.8980    0.0000 C   0  0  0  0  0  0  0  0  0  0  0  0
    3.9175   -9.7859    0.0000 O   0  0  0  0  0  0  0  0  0  0  0  0
    1.5768   -8.6587    0.0000 C   0  0  0  0  0  0  0  0  0  0  0  0
    0.0810   -8.7708    0.0000 C   0  0  0  0  0  0  0  0  0  0  0  0
   -0.5699  -10.1222    0.0000 C   0  0  0  0  0  0  0  0  0  0  0  0
   -2.0657  -10.2343    0.0000 C   0  0  0  0  0  0  0  0  0  0  0  0
   -2.7165  -11.5858    0.0000 N   0  0  0  0  0  0  0  0  0  0  0  0
    2.2276   -7.3072    0.0000 N   0  0  0  0  0  0  0  0  0  0  0  0
    3.7234   -7.1951    0.0000 C   0  0  0  0  0  0  0  0  0  0  0  0
    4.5684   -8.4345    0.0000 O   0  0  0  0  0  0  0  0  0  0  0  0
    4.3742   -5.8437    0.0000 C   0  0  0  0  0  0  0  0  0  0  0  0
    3.1041   -5.0456    0.0000 C   0  0  0  0  0  0  0  0  0  0  0  0
    2.0435   -3.9849    0.0000 N   0  0  0  0  0  0  0  0  0  0  0  0
    1.2454   -2.7149    0.0000 C   0  0  0  0  0  0  0  0  0  0  0  0
   -0.1060   -3.3657    0.0000 O   0  0  0  0  0  0  0  0  0  0  0  0
    0.7500   -1.2990    0.0000 C   0  0  0  0  0  0  0  0  0  0  0  0
    1.5000    0.0000    0.0000 C   0  0  0  0  0  0  0  0  0  0  0  0
    0.7500    1.2990    0.0000 C   0  0  0  0  0  0  0  0  0  0  0  0
   -0.7500    1.2990    0.0000 C   0  0  0  0  0  0  0  0  0  0  0  0
   -1.5000    0.0000    0.0000 C   0  0  0  0  0  0  0  0  0  0  0  0
   -0.7500   -1.2990    0.0000 C   0  0  0  0  0  0  0  0  0  0  0  0
   -2.7514    0.8271    0.0000 C   0  0  0  0  0  0  0  0  0  0  0  0
   -3.7181   -0.3198    0.0000 O   0  0  0  0  0  0  0  0  0  0  0  0
   -3.7782    1.9205    0.0000 N   0  0  0  0  0  0  0  0  0  0  0  0
   -4.5253    3.2212    0.0000 C   0  0  0  0  0  0  0  0  0  0  0  0
   -5.9040    2.6302    0.0000 C   0  0  0  0  0  0  0  0  0  0  0  0
   -6.0815    1.1408    0.0000 C   0  0  0  0  0  0  0  0  0  0  0  0
   -4.8803    0.2423    0.0000 C   0  0  0  0  0  0  0  0  0  0  0  0
   -5.0578   -1.2471    0.0000 C   0  0  0  0  0  0  0  0  0  0  0  0
   -6.4365   -1.8381    0.0000 C   0  0  0  0  0  0  0  0  0  0  0  0
   -6.6140   -3.3276    0.0000 C   0  0  0  0  0  0  0  0  0  0  0  0
   -7.9927   -3.9186    0.0000 C   0  0  0  0  0  0  0  0  0  0  0  0
   -9.1939   -3.0201    0.0000 C   0  0  0  0  0  0  0  0  0  0  0  0
   -9.0163   -1.5307    0.0000 C   0  0  0  0  0  0  0  0  0  0  0  0
   -7.6377   -0.9397    0.0000 C   0  0  0  0  0  0  0  0  0  0  0  0
   -7.4602    0.5498    0.0000 C   0  0  0  0  0  0  0  0  0  0  0  0
   -4.9522    4.6592    0.0000 C   0  0  0  0  0  0  0  0  0  0  0  0
   -6.4300    4.4021    0.0000 O   0  0  0  0  0  0  0  0  0  0  0  0
   -5.0361    6.1568    0.0000 N   0  0  0  0  0  0  0  0  0  0  0  0
   -4.7722    7.6335    0.0000 C   0  0  0  0  0  0  0  0  0  0  0  0
   -6.2082    8.0669    0.0000 C   0  0  0  0  0  0  0  0  0  0  0  0
   -6.5509    9.5273    0.0000 C   0  0  0  0  0  0  0  0  0  0  0  0
   -7.9869    9.9607    0.0000 O   0  0  0  0  0  0  0  0  0  0  0  0
   -4.1750    9.0094    0.0000 C   0  0  0  0  0  0  0  0  0  0  0  0
   -5.4723    9.7624    0.0000 O   0  0  0  0  0  0  0  0  0  0  0  0
   -3.2765   10.2106    0.0000 N   0  0  0  0  0  0  0  0  0  0  0  0
   -2.1253   11.1722    0.0000 C   0  0  0  0  0  0  0  0  0  0  0  0
   -2.9467   12.4273    0.0000 C   0  0  0  0  0  0  0  0  0  0  0  0
   -4.4444   12.3434    0.0000 C   0  0  0  0  0  0  0  0  0  0  0  0
   -5.2658   13.5985    0.0000 N   0  0  0  0  0  0  0  0  0  0  0  0
   -5.1206   11.0045    0.0000 O   0  0  0  0  0  0  0  0  0  0  0  0
   -0.7833   11.8423    0.0000 C   0  0  0  0  0  0  0  0  0  0  0  0
   -1.2931   13.2530    0.0000 O   0  0  0  0  0  0  0  0  0  0  0  0
    0.6770   12.1849    0.0000 N   0  0  0  0  0  0  0  0  0  0  0  0
    2.1770   12.1815    0.0000 C   0  0  0  0  0  0  0  0  0  0  0  0
    2.3546   13.6710    0.0000 C   0  0  0  0  0  0  0  0  0  0  0  0
    1.1534   14.5694    0.0000 C   0  0  0  0  0  0  0  0  0  0  0  0
   -0.2253   13.9785    0.0000 C   0  0  0  0  0  0  0  0  0  0  0  0
   -1.4264   14.8769    0.0000 C   0  0  0  0  0  0  0  0  0  0  0  0
   -1.2489   16.3664    0.0000 C   0  0  0  0  0  0  0  0  0  0  0  0
   -2.4501   17.2648    0.0000 C   0  0  0  0  0  0  0  0  0  0  0  0
   -2.2725   18.7543    0.0000 C   0  0  0  0  0  0  0  0  0  0  0  0
   -0.8939   19.3453    0.0000 C   0  0  0  0  0  0  0  0  0  0  0  0
    0.3073   18.4468    0.0000 C   0  0  0  0  0  0  0  0  0  0  0  0
    0.1298   16.9574    0.0000 C   0  0  0  0  0  0  0  0  0  0  0  0
    1.3309   16.0589    0.0000 C   0  0  0  0  0  0  0  0  0  0  0  0
    3.6358   11.8323    0.0000 C   0  0  0  0  0  0  0  0  0  0  0  0
    4.1520   13.2407    0.0000 O   0  0  0  0  0  0  0  0  0  0  0  0
    4.9747   11.1561    0.0000 N   0  0  0  0  0  0  0  0  0  0  0  0
    6.1216   10.1893    0.0000 C   0  0  0  0  0  0  0  0  0  0  0  0
    7.2150   11.2162    0.0000 C   0  0  0  0  0  0  0  0  0  0  0  0
    8.6510   10.7827    0.0000 C   0  0  0  0  0  0  0  0  0  0  0  0
    9.7444   11.8096    0.0000 C   0  0  0  0  0  0  0  0  0  0  0  0
    9.4018   13.2699    0.0000 C   0  0  0  0  0  0  0  0  0  0  0  0
    7.9658   13.7034    0.0000 C   0  0  0  0  0  0  0  0  0  0  0  0
    6.8724   12.6765    0.0000 C   0  0  0  0  0  0  0  0  0  0  0  0
    7.0146    8.9841    0.0000 C   0  0  0  0  0  0  0  0  0  0  0  0
    8.3154    9.7311    0.0000 O   0  0  0  0  0  0  0  0  0  0  0  0
    7.6056    7.6054    0.0000 N   0  0  0  0  0  0  0  0  0  0  0  0
    8.7712    6.7221    0.0000 C   0  0  0  0  0  0  0  0  0  0  0  0
    7.2806    6.1901    0.0000 C   0  0  0  0  0  0  0  0  0  0  0  0
    5.9458    6.0397    0.0000 C   0  0  0  0  0  0  0  0  0  0  0  0
    4.6779    5.5960    0.0000 C   0  0  0  0  0  0  0  0  0  0  0  0
    3.5406    4.8814    0.0000 C   0  0  0  0  0  0  0  0  0  0  0  0
    2.5907    3.9316    0.0000 N   0  0  0  0  0  0  0  0  0  0  0  0
    1.5931    2.4904    0.0000 C   0  0  0  0  0  0  0  0  0  0  0  0
   -0.1060    3.7487    0.0000 O   0  0  0  0  0  0  0  0  0  0  0  0
   10.1870    6.2267    0.0000 C   0  0  0  0  0  0  0  0  0  0  0  0
   10.8378    7.5782    0.0000 O   0  0  0  0  0  0  0  0  0  0  0  0
   11.4571    5.4287    0.0000 N   0  0  0  0  0  0  0  0  0  0  0  0
   12.5177    4.3680    0.0000 C   0  0  0  0  0  0  0  0  0  0  0  0
   13.6905    5.3032    0.0000 C   0  0  0  0  0  0  0  0  0  0  0  0
   15.0868    4.7552    0.0000 C   0  0  0  0  0  0  0  0  0  0  0  0
   15.3104    3.2720    0.0000 C   0  0  0  0  0  0  0  0  0  0  0  0
   16.7067    2.7240    0.0000 C   0  0  0  0  0  0  0  0  0  0  0  0
   17.8794    3.6592    0.0000 C   0  0  0  0  0  0  0  0  0  0  0  0
   17.6559    5.1425    0.0000 C   0  0  0  0  0  0  0  0  0  0  0  0
   16.2596    5.6905    0.0000 C   0  0  0  0  0  0  0  0  0  0  0  0
   13.3158    3.0979    0.0000 C   0  0  0  0  0  0  0  0  0  0  0  0
   14.6672    3.7487    0.0000 O   0  0  0  0  0  0  0  0  0  0  0  0
   13.8112    1.6821    0.0000 N   0  0  0  0  0  0  0  0  0  0  0  0
   13.9792    0.1915    0.0000 C   0  0  0  0  0  0  0  0  0  0  0  0
   15.4792    0.1915    0.0000 C   0  0  0  0  0  0  0  0  0  0  0  0
   16.2292   -1.1075    0.0000 C   0  0  0  0  0  0  0  0  0  0  0  0
   17.7292   -1.1075    0.0000 C   0  0  0  0  0  0  0  0  0  0  0  0
   18.4792   -2.4065    0.0000 N   0  0  0  0  0  0  0  0  0  0  0  0
   18.4792    0.1915    0.0000 O   0  0  0  0  0  0  0  0  0  0  0  0
   13.8112   -1.2990    0.0000 C   0  0  0  0  0  0  0  0  0  0  0  0
   15.2736   -1.6328    0.0000 O   0  0  0  0  0  0  0  0  0  0  0  0
   13.3158   -2.7149    0.0000 N   0  0  0  0  0  0  0  0  0  0  0  0
   12.5177   -3.9849    0.0000 C   0  0  0  0  0  0  0  0  0  0  0  0
   13.6905   -4.9202    0.0000 C   0  0  0  0  0  0  0  0  0  0  0  0
   13.4669   -6.4034    0.0000 C   0  0  0  0  0  0  0  0  0  0  0  0
   14.6397   -7.3387    0.0000 C   0  0  0  0  0  0  0  0  0  0  0  0
   14.4161   -8.8219    0.0000 N   0  0  0  0  0  0  0  0  0  0  0  0
   15.5889   -9.7571    0.0000 C   0  0  0  0  0  0  0  0  0  0  0  0
   16.9852   -9.2091    0.0000 N   0  0  0  0  0  0  0  0  0  0  0  0
   15.3653  -11.2404    0.0000 N   0  0  0  0  0  0  0  0  0  0  0  0
   11.4571   -5.0456    0.0000 C   0  0  0  0  0  0  0  0  0  0  0  0
   12.3923   -6.2184    0.0000 O   0  0  0  0  0  0  0  0  0  0  0  0
   10.1870   -5.8437    0.0000 N   0  0  0  0  0  0  0  0  0  0  0  0
    8.7712   -6.3391    0.0000 C   0  0  0  0  0  0  0  0  0  0  0  0
    9.1050   -7.8015    0.0000 C   0  0  0  0  0  0  0  0  0  0  0  0
    8.0054   -8.8217    0.0000 C   0  0  0  0  0  0  0  0  0  0  0  0
    8.3392  -10.2841    0.0000 C   0  0  0  0  0  0  0  0  0  0  0  0
    7.2396  -11.3044    0.0000 N   0  0  0  0  0  0  0  0  0  0  0  0
    7.5734  -12.7668    0.0000 C   0  0  0  0  0  0  0  0  0  0  0  0
    8.3693  -12.8104    0.0000 N   0  0  0  0  0  0  0  0  0  0  0  0
    6.7533  -14.0228    0.0000 N   0  0  0  0  0  0  0  0  0  0  0  0
    7.2806   -6.5070    0.0000 C   0  0  0  0  0  0  0  0  0  0  0  0
    7.2806   -8.0070    0.0000 O   0  0  0  0  0  0  0  0  0  0  0  0
    5.7900   -6.3391    0.0000 N   0  0  0  0  0  0  0  0  0  0  0  0
    8.4050   -9.4496    0.0000 C   0  0  0  0  0  0  0  0  0  0  0  0
    9.3635   -8.2958    0.0000 N   0  0  0  0  0  0  0  0  0  0  0  0
    6.9092   -9.5617    0.0000 O   0  0  0  0  0  0  0  0  0  0  0  0
  2  1  1  1
  2  3  1  0
  3  4  1  0
  4  5  2  0
  4  6  1  0
  6  7  1  6
  7  8  1  0
  8  9  2  0
  9 10  1  0
 10 11  2  0
 11 12  1  0
 12 13  2  0
  6 14  1  0
 14 15  1  0
 15 16  2  0
 15 17  1  0
 17 18  1  1
 18 19  1  0
 19 20  1  0
 20 21  1  0
 21 22  1  0
 22 23  2  0
 22 24  1  0
 17 25  1  0
 25 26  1  0
 26 27  2  0
 26 28  1  0
 28 29  1  6
 29 30  1  0
 30 31  1  0
 31 32  1  0
 28 33  1  0
 33 34  1  0
 34 35  2  0
 36 34  1  6
 36 37  1  0
 37 38  1  0
 38 39  1  0
 39 40  2  0
 39 41  1  0
 41 42  2  0
 42 43  1  0
 43 44  2  0
 44 45  1  0
 45 46  2  0
 45 47  1  0
 47 48  2  0
 47 49  1  0
 49 50  1  0
 50 51  1  6
 51 52  1  0
 52 53  2  0
 53 54  1  0
 54 55  2  0
 55 56  1  0
 56 57  2  0
 57 58  1  0
 58 59  2  0
 59 60  1  0
 60 61  2  0
 50 62  1  0
 62 63  2  0
 62 64  1  0
 64 65  1  0
 65 66  1  1
 66 67  1  0
 67 68  1  0
 65 69  1  0
 69 70  2  0
 69 71  1  0
 71 72  1  0
 72 73  1  1
 73 74  1  0
 74 75  1  0
 74 76  2  0
 72 77  1  0
 77 78  2  0
 77 79  1  0
 79 80  1  0
 80 81  1  6
 81 82  1  0
 82 83  2  0
 83 84  1  0
 84 85  2  0
 85 86  1  0
 86 87  2  0
 87 88  1  0
 88 89  2  0
 89 90  1  0
 90 91  2  0
 80 92  1  0
 92 93  2  0
 92 94  1  0
 94 95  1  0
 95 96  1  1
 96 97  2  0
 97 98  1  0
 98 99  2  0
 99100  1  0
100101  2  0
 95102  1  0
102103  2  0
102104  1  0
105104  1  6
105106  1  0
106107  1  0
107108  1  0
108109  1  0
109110  1  0
110111  1  0
111112  2  0
105113  1  0
113114  2  0
113115  1  0
115116  1  0
116117  1  6
117118  1  0
118119  2  0
119120  1  0
120121  2  0
121122  1  0
122123  2  0
116124  1  0
124125  2  0
124126  1  0
126127  1  0
127128  1  6
128129  1  0
129130  1  0
130131  1  0
130132  2  0
127133  1  0
133134  2  0
133135  1  0
135136  1  0
136137  1  6
137138  1  0
138139  1  0
139140  1  0
140141  1  0
141142  2  0
141143  1  0
136144  1  0
144145  2  0
144146  1  0
146147  1  0
147148  1  1
148149  1  0
149150  1  0
150151  1  0
151152  1  0
152153  2  0
152154  1  0
147155  1  0
155156  2  0
155157  1  0
  2158  1  0
158159  1  0
158160  2  0
 13  8  1  0
157 36  1  0
 46 41  1  0
 61 52  1  0
 91 82  1  0
101 96  1  0
123118  1  0
111 43  1  0
 60 55  1  0
 90 85  1  0
M  END
>  <molecule_chembl_id>  (144) 
CHEMBL4848941

>  <canonical_smiles>  (144) 
C[C@@H](NC(=O)[C@H](Cc1ccccc1)NC(=O)[C@@H](CCCNC(=N)N)NC(=O)[C@H](CCCN)NC(=O)[C@@H]1CNC(=O)c2cc3cc(c2)C(=O)N[C@H](Cc2ccc4ccccc4c2)C(=O)N[C@@H](CCO)C(=O)N[C@@H](CC(N)=O)C(=O)N[C@H](Cc2ccc4ccccc4c2)C(=O)N[C@@H](c2ccccc2)C(=O)N[C@@H](CCCCNC3=O)C(=O)N[C@H](Cc2ccccc2)C(=O)N[C@H](CCC(N)=O)C(=O)N[C@H](CCCNC(=N)N)C(=O)N[C@@H](CCCNC(=N)N)C(=O)N1)C(N)=O

>  <pchembl_value_mean>  (144) 
6.0

>  <inchi>  (144) 
InChI=1S/C109H140N30O21/c1-60(89(113)143)125-100(154)80(51-61-21-5-2-6-22-61)134-96(150)76(34-19-46-122-108(116)117)126-93(147)74(32-17-43-110)129-105(159)85-59-124-91(145)71-55-70-56-72(57-71)92(146)133-82(53-63-36-38-65-25-11-13-29-68(65)49-63)102(156)131-79(42-48-140)99(153)137-84(58-87(112)142)103(157)136-83(54-64-37-39-66-26-12-14-30-69(66)50-64)104(158)139-88(67-27-9-4-10-28-67)106(160)132-73(31-15-16-44-120-90(70)144)95(149)135-81(52-62-23-7-3-8-24-62)101(155)130-78(40-41-86(111)141)98(152)128-75(33-18-45-121-107(114)115)94(148)127-77(97(151)138-85)35-20-47-123-109(118)119/h2-14,21-30,36-39,49-50,55-57,60,73-85,88,140H,15-20,31-35,40-48,51-54,58-59,110H2,1H3,(H2,111,141)(H2,112,142)(H2,113,143)(H,120,144)(H,124,145)(H,125,154)(H,126,147)(H,127,148)(H,128,152)(H,129,159)(H,130,155)(H,131,156)(H,132,160)(H,133,146)(H,134,150)(H,135,149)(H,136,157)(H,137,153)(H,138,151)(H,139,158)(H4,114,115,121)(H4,116,117,122)(H4,118,119,123)/t60-,73+,74+,75-,76-,77+,78-,79+,80+,81-,82-,83-,84+,85+,88+/m1/s1

$$$$

     RDKit          2D

155163  0  0  0  0  0  0  0  0999 V2000
   15.4792   -0.1915    0.0000 C   0  0  0  0  0  0  0  0  0  0  0  0
   13.9792   -0.1915    0.0000 C   0  0  0  0  0  0  0  0  0  0  0  0
   13.8112   -1.6821    0.0000 N   0  0  0  0  0  0  0  0  0  0  0  0
   13.3158   -3.0979    0.0000 C   0  0  0  0  0  0  0  0  0  0  0  0
   14.6672   -3.7487    0.0000 O   0  0  0  0  0  0  0  0  0  0  0  0
   12.5177   -4.3680    0.0000 C   0  0  0  0  0  0  0  0  0  0  0  0
   13.6905   -5.3032    0.0000 C   0  0  0  0  0  0  0  0  0  0  0  0
   13.4669   -6.7865    0.0000 C   0  0  0  0  0  0  0  0  0  0  0  0
   12.0706   -7.3345    0.0000 C   0  0  0  0  0  0  0  0  0  0  0  0
   11.8471   -8.8177    0.0000 C   0  0  0  0  0  0  0  0  0  0  0  0
   13.0198   -9.7530    0.0000 C   0  0  0  0  0  0  0  0  0  0  0  0
   14.4161   -9.2050    0.0000 C   0  0  0  0  0  0  0  0  0  0  0  0
   14.6397   -7.7217    0.0000 C   0  0  0  0  0  0  0  0  0  0  0  0
   11.4571   -5.4287    0.0000 N   0  0  0  0  0  0  0  0  0  0  0  0
   10.1870   -6.2267    0.0000 C   0  0  0  0  0  0  0  0  0  0  0  0
   10.8378   -7.5782    0.0000 O   0  0  0  0  0  0  0  0  0  0  0  0
    8.7712   -6.7221    0.0000 C   0  0  0  0  0  0  0  0  0  0  0  0
    7.2806   -6.8901    0.0000 C   0  0  0  0  0  0  0  0  0  0  0  0
    5.7900   -6.7221    0.0000 C   0  0  0  0  0  0  0  0  0  0  0  0
    4.3742   -6.2267    0.0000 C   0  0  0  0  0  0  0  0  0  0  0  0
    3.1041   -5.4287    0.0000 C   0  0  0  0  0  0  0  0  0  0  0  0
    2.0435   -4.3680    0.0000 N   0  0  0  0  0  0  0  0  0  0  0  0
    1.2454   -3.0979    0.0000 C   0  0  0  0  0  0  0  0  0  0  0  0
   -0.1060   -3.7487    0.0000 O   0  0  0  0  0  0  0  0  0  0  0  0
    0.7500   -1.2990    0.0000 C   0  0  0  0  0  0  0  0  0  0  0  0
    1.5000    0.0000    0.0000 C   0  0  0  0  0  0  0  0  0  0  0  0
    0.7500    1.2990    0.0000 C   0  0  0  0  0  0  0  0  0  0  0  0
   -0.7500    1.2990    0.0000 C   0  0  0  0  0  0  0  0  0  0  0  0
   -1.5000    0.0000    0.0000 C   0  0  0  0  0  0  0  0  0  0  0  0
   -0.7500   -1.2990    0.0000 C   0  0  0  0  0  0  0  0  0  0  0  0
   -2.3002   -1.3623    0.0000 C   0  0  0  0  0  0  0  0  0  0  0  0
   -3.7181    0.3198    0.0000 O   0  0  0  0  0  0  0  0  0  0  0  0
   -3.2158   -2.3372    0.0000 N   0  0  0  0  0  0  0  0  0  0  0  0
   -3.8819   -3.4970    0.0000 C   0  0  0  0  0  0  0  0  0  0  0  0
   -5.9040   -2.6302    0.0000 C   0  0  0  0  0  0  0  0  0  0  0  0
   -6.0815   -1.1408    0.0000 C   0  0  0  0  0  0  0  0  0  0  0  0
   -4.8803   -0.2423    0.0000 C   0  0  0  0  0  0  0  0  0  0  0  0
   -5.0578    1.2471    0.0000 C   0  0  0  0  0  0  0  0  0  0  0  0
   -6.4365    1.8381    0.0000 C   0  0  0  0  0  0  0  0  0  0  0  0
   -6.6140    3.3276    0.0000 C   0  0  0  0  0  0  0  0  0  0  0  0
   -7.9927    3.9186    0.0000 C   0  0  0  0  0  0  0  0  0  0  0  0
   -9.1939    3.0201    0.0000 C   0  0  0  0  0  0  0  0  0  0  0  0
   -9.0163    1.5307    0.0000 C   0  0  0  0  0  0  0  0  0  0  0  0
   -7.6377    0.9397    0.0000 C   0  0  0  0  0  0  0  0  0  0  0  0
   -7.4602   -0.5498    0.0000 C   0  0  0  0  0  0  0  0  0  0  0  0
   -4.2626   -4.7792    0.0000 C   0  0  0  0  0  0  0  0  0  0  0  0
   -6.4300   -4.4021    0.0000 O   0  0  0  0  0  0  0  0  0  0  0  0
   -4.3373   -6.1146    0.0000 N   0  0  0  0  0  0  0  0  0  0  0  0
   -4.1021   -7.4312    0.0000 C   0  0  0  0  0  0  0  0  0  0  0  0
   -6.2082   -8.0669    0.0000 C   0  0  0  0  0  0  0  0  0  0  0  0
   -7.3016   -7.0400    0.0000 O   0  0  0  0  0  0  0  0  0  0  0  0
   -3.5696   -8.6581    0.0000 C   0  0  0  0  0  0  0  0  0  0  0  0
   -5.4723   -9.7624    0.0000 O   0  0  0  0  0  0  0  0  0  0  0  0
   -2.7685   -9.7291    0.0000 N   0  0  0  0  0  0  0  0  0  0  0  0
   -1.7420  -10.5864    0.0000 C   0  0  0  0  0  0  0  0  0  0  0  0
   -2.9467  -12.4273    0.0000 C   0  0  0  0  0  0  0  0  0  0  0  0
   -4.4444  -12.3434    0.0000 C   0  0  0  0  0  0  0  0  0  0  0  0
   -5.2658  -13.5985    0.0000 N   0  0  0  0  0  0  0  0  0  0  0  0
   -5.1206  -11.0045    0.0000 O   0  0  0  0  0  0  0  0  0  0  0  0
   -0.5454  -11.1840    0.0000 C   0  0  0  0  0  0  0  0  0  0  0  0
   -1.2931  -13.2530    0.0000 O   0  0  0  0  0  0  0  0  0  0  0  0
    0.7567  -11.4895    0.0000 N   0  0  0  0  0  0  0  0  0  0  0  0
    2.0942  -11.4864    0.0000 C   0  0  0  0  0  0  0  0  0  0  0  0
    2.3546  -13.6710    0.0000 C   0  0  0  0  0  0  0  0  0  0  0  0
    1.1534  -14.5694    0.0000 C   0  0  0  0  0  0  0  0  0  0  0  0
   -0.2253  -13.9785    0.0000 C   0  0  0  0  0  0  0  0  0  0  0  0
   -1.4264  -14.8769    0.0000 C   0  0  0  0  0  0  0  0  0  0  0  0
   -1.2489  -16.3664    0.0000 C   0  0  0  0  0  0  0  0  0  0  0  0
   -2.4501  -17.2648    0.0000 C   0  0  0  0  0  0  0  0  0  0  0  0
   -2.2725  -18.7543    0.0000 C   0  0  0  0  0  0  0  0  0  0  0  0
   -0.8939  -19.3453    0.0000 C   0  0  0  0  0  0  0  0  0  0  0  0
    0.3073  -18.4468    0.0000 C   0  0  0  0  0  0  0  0  0  0  0  0
    0.1298  -16.9574    0.0000 C   0  0  0  0  0  0  0  0  0  0  0  0
    1.3309  -16.0589    0.0000 C   0  0  0  0  0  0  0  0  0  0  0  0
    3.3949  -11.1751    0.0000 C   0  0  0  0  0  0  0  0  0  0  0  0
    4.1520  -13.2407    0.0000 O   0  0  0  0  0  0  0  0  0  0  0  0
    4.5887  -10.5721    0.0000 N   0  0  0  0  0  0  0  0  0  0  0  0
    5.6114   -9.7101    0.0000 C   0  0  0  0  0  0  0  0  0  0  0  0
    7.2150  -11.2162    0.0000 C   0  0  0  0  0  0  0  0  0  0  0  0
    6.8724  -12.6765    0.0000 C   0  0  0  0  0  0  0  0  0  0  0  0
    7.9658  -13.7034    0.0000 C   0  0  0  0  0  0  0  0  0  0  0  0
    9.4018  -13.2699    0.0000 C   0  0  0  0  0  0  0  0  0  0  0  0
    9.7444  -11.8096    0.0000 C   0  0  0  0  0  0  0  0  0  0  0  0
    8.6510  -10.7827    0.0000 C   0  0  0  0  0  0  0  0  0  0  0  0
    6.4076   -8.6354    0.0000 C   0  0  0  0  0  0  0  0  0  0  0  0
    8.3154   -9.7311    0.0000 O   0  0  0  0  0  0  0  0  0  0  0  0
    8.1358   -8.0625    0.0000 N   0  0  0  0  0  0  0  0  0  0  0  0
    1.2454    2.7149    0.0000 C   0  0  0  0  0  0  0  0  0  0  0  0
    0.0946    3.1047    0.0000 O   0  0  0  0  0  0  0  0  0  0  0  0
    2.0435    3.9849    0.0000 N   0  0  0  0  0  0  0  0  0  0  0  0
    3.1041    5.0456    0.0000 C   0  0  0  0  0  0  0  0  0  0  0  0
    4.3742    5.8437    0.0000 C   0  0  0  0  0  0  0  0  0  0  0  0
    3.7234    7.1951    0.0000 C   0  0  0  0  0  0  0  0  0  0  0  0
    2.2276    7.3072    0.0000 O   0  0  0  0  0  0  0  0  0  0  0  0
    4.5684    8.4345    0.0000 N   0  0  0  0  0  0  0  0  0  0  0  0
    3.9175    9.7859    0.0000 C   0  0  0  0  0  0  0  0  0  0  0  0
    4.7625   11.0253    0.0000 C   0  0  0  0  0  0  0  0  0  0  0  0
    4.1117   12.3767    0.0000 C   0  0  0  0  0  0  0  0  0  0  0  0
    4.9567   13.6161    0.0000 C   0  0  0  0  0  0  0  0  0  0  0  0
    4.3059   14.9675    0.0000 N   0  0  0  0  0  0  0  0  0  0  0  0
    2.4217    9.8980    0.0000 C   0  0  0  0  0  0  0  0  0  0  0  0
    1.5768    8.6587    0.0000 O   0  0  0  0  0  0  0  0  0  0  0  0
    1.7709   11.2495    0.0000 N   0  0  0  0  0  0  0  0  0  0  0  0
    0.2751   11.3616    0.0000 C   0  0  0  0  0  0  0  0  0  0  0  0
   -0.3757   12.7130    0.0000 C   0  0  0  0  0  0  0  0  0  0  0  0
   -1.8715   12.8251    0.0000 C   0  0  0  0  0  0  0  0  0  0  0  0
   -2.5224   14.1766    0.0000 C   0  0  0  0  0  0  0  0  0  0  0  0
   -4.0182   14.2887    0.0000 N   0  0  0  0  0  0  0  0  0  0  0  0
   -4.6690   15.6401    0.0000 C   0  0  0  0  0  0  0  0  0  0  0  0
   -3.8240   16.8795    0.0000 N   0  0  0  0  0  0  0  0  0  0  0  0
   -6.1648   15.7522    0.0000 N   0  0  0  0  0  0  0  0  0  0  0  0
   -0.5699   10.1222    0.0000 C   0  0  0  0  0  0  0  0  0  0  0  0
    0.0810    8.7708    0.0000 O   0  0  0  0  0  0  0  0  0  0  0  0
   -2.0657   10.2343    0.0000 N   0  0  0  0  0  0  0  0  0  0  0  0
   -2.9107    8.9949    0.0000 C   0  0  0  0  0  0  0  0  0  0  0  0
   -4.4065    9.1070    0.0000 C   0  0  0  0  0  0  0  0  0  0  0  0
   -5.2514    7.8677    0.0000 C   0  0  0  0  0  0  0  0  0  0  0  0
   -6.7473    7.9798    0.0000 C   0  0  0  0  0  0  0  0  0  0  0  0
   -7.5922    6.7404    0.0000 N   0  0  0  0  0  0  0  0  0  0  0  0
   -9.0880    6.8525    0.0000 C   0  0  0  0  0  0  0  0  0  0  0  0
   -9.7389    8.2040    0.0000 N   0  0  0  0  0  0  0  0  0  0  0  0
   -9.9330    5.6132    0.0000 N   0  0  0  0  0  0  0  0  0  0  0  0
   -2.2598    7.6435    0.0000 C   0  0  0  0  0  0  0  0  0  0  0  0
   -0.7640    7.5314    0.0000 O   0  0  0  0  0  0  0  0  0  0  0  0
   -3.1048    6.4041    0.0000 N   0  0  0  0  0  0  0  0  0  0  0  0
   -2.4540    5.0527    0.0000 C   0  0  0  0  0  0  0  0  0  0  0  0
   -3.2990    3.8133    0.0000 C   0  0  0  0  0  0  0  0  0  0  0  0
   -0.9582    4.9406    0.0000 C   0  0  0  0  0  0  0  0  0  0  0  0
   -0.1132    6.1799    0.0000 N   0  0  0  0  0  0  0  0  0  0  0  0
   -0.5684    3.7898    0.0000 O   0  0  0  0  0  0  0  0  0  0  0  0
    5.7900    6.3391    0.0000 N   0  0  0  0  0  0  0  0  0  0  0  0
    7.2806    6.5070    0.0000 C   0  0  0  0  0  0  0  0  0  0  0  0
    7.2806    8.0070    0.0000 O   0  0  0  0  0  0  0  0  0  0  0  0
    8.7712    6.3391    0.0000 C   0  0  0  0  0  0  0  0  0  0  0  0
    9.1050    7.8015    0.0000 C   0  0  0  0  0  0  0  0  0  0  0  0
   10.5383    8.2436    0.0000 C   0  0  0  0  0  0  0  0  0  0  0  0
   10.8721    9.7060    0.0000 C   0  0  0  0  0  0  0  0  0  0  0  0
   12.3055   10.1481    0.0000 N   0  0  0  0  0  0  0  0  0  0  0  0
   12.6392   11.6105    0.0000 C   0  0  0  0  0  0  0  0  0  0  0  0
   11.5397   12.6308    0.0000 N   0  0  0  0  0  0  0  0  0  0  0  0
   14.0726   12.0527    0.0000 N   0  0  0  0  0  0  0  0  0  0  0  0
   10.1870    5.8437    0.0000 N   0  0  0  0  0  0  0  0  0  0  0  0
   11.4571    5.0456    0.0000 C   0  0  0  0  0  0  0  0  0  0  0  0
   12.3923    6.2184    0.0000 O   0  0  0  0  0  0  0  0  0  0  0  0
   12.5177    3.9849    0.0000 C   0  0  0  0  0  0  0  0  0  0  0  0
   13.6905    4.9202    0.0000 C   0  0  0  0  0  0  0  0  0  0  0  0
   15.0868    4.3722    0.0000 C   0  0  0  0  0  0  0  0  0  0  0  0
   16.2596    5.3074    0.0000 C   0  0  0  0  0  0  0  0  0  0  0  0
   17.6559    4.7594    0.0000 N   0  0  0  0  0  0  0  0  0  0  0  0
   18.8286    5.6946    0.0000 C   0  0  0  0  0  0  0  0  0  0  0  0
   18.6050    7.1779    0.0000 N   0  0  0  0  0  0  0  0  0  0  0  0
   20.2249    5.1466    0.0000 N   0  0  0  0  0  0  0  0  0  0  0  0
   13.3158    2.7149    0.0000 N   0  0  0  0  0  0  0  0  0  0  0  0
   13.8112    1.2990    0.0000 C   0  0  0  0  0  0  0  0  0  0  0  0
   15.2736    1.6328    0.0000 O   0  0  0  0  0  0  0  0  0  0  0  0
  2  1  1  6
  2  3  1  0
  3  4  1  0
  4  5  2  0
  4  6  1  0
  6  7  1  1
  7  8  1  0
  8  9  2  0
  9 10  1  0
 10 11  2  0
 11 12  1  0
 12 13  2  0
  6 14  1  0
 14 15  1  0
 15 16  2  0
 15 17  1  0
 17 18  1  0
 18 19  1  0
 19 20  1  0
 20 21  1  0
 21 22  1  0
 22 23  1  0
 23 24  2  0
 23 25  1  0
 25 26  1  0
 26 27  2  0
 27 28  1  0
 28 29  2  0
 29 30  1  0
 29 31  1  0
 31 32  2  0
 31 33  1  0
 33 34  1  0
 34 35  1  1
 35 36  1  0
 36 37  2  0
 37 38  1  0
 38 39  2  0
 39 40  1  0
 40 41  2  0
 41 42  1  0
 42 43  2  0
 43 44  1  0
 44 45  2  0
 34 46  1  0
 46 47  2  0
 46 48  1  0
 48 49  1  0
 49 50  1  6
 50 51  1  0
 49 52  1  0
 52 53  2  0
 52 54  1  0
 54 55  1  0
 55 56  1  6
 56 57  1  0
 57 58  1  0
 57 59  2  0
 55 60  1  0
 60 61  2  0
 60 62  1  0
 62 63  1  0
 63 64  1  1
 64 65  1  0
 65 66  2  0
 66 67  1  0
 67 68  2  0
 68 69  1  0
 69 70  2  0
 70 71  1  0
 71 72  2  0
 72 73  1  0
 73 74  2  0
 63 75  1  0
 75 76  2  0
 75 77  1  0
 77 78  1  0
 78 79  1  6
 79 80  2  0
 80 81  1  0
 81 82  2  0
 82 83  1  0
 83 84  2  0
 78 85  1  0
 85 86  2  0
 85 87  1  0
 27 88  1  0
 88 89  2  0
 88 90  1  0
 90 91  1  0
 91 92  1  0
 92 93  1  1
 93 94  2  0
 93 95  1  0
 95 96  1  0
 96 97  1  6
 97 98  1  0
 98 99  1  0
 99100  1  0
 96101  1  0
101102  2  0
101103  1  0
103104  1  0
104105  1  1
105106  1  0
106107  1  0
107108  1  0
108109  1  0
109110  2  0
109111  1  0
104112  1  0
112113  2  0
112114  1  0
114115  1  0
115116  1  6
116117  1  0
117118  1  0
118119  1  0
119120  1  0
120121  2  0
120122  1  0
115123  1  0
123124  2  0
123125  1  0
125126  1  0
126127  1  1
126128  1  0
128129  1  0
128130  2  0
 92131  1  0
131132  1  0
132133  2  0
132134  1  0
134135  1  6
135136  1  0
136137  1  0
137138  1  0
138139  1  0
139140  2  0
139141  1  0
134142  1  0
142143  1  0
143144  2  0
143145  1  0
145146  1  1
146147  1  0
147148  1  0
148149  1  0
149150  1  0
150151  2  0
150152  1  0
145153  1  0
153154  1  0
154155  2  0
154  2  1  0
 13  8  1  0
 17 87  1  1
 30 25  2  0
 45 36  1  0
 74 65  1  0
 84 79  1  0
 44 39  1  0
 73 68  1  0
M  END
>  <molecule_chembl_id>  (145) 
CHEMBL4847834

>  <canonical_smiles>  (145) 
C[C@@H]1NC(=O)[C@@H](Cc2ccccc2)NC(=O)[C@@H]2CCCCNC(=O)c3cc(cc(c3)C(=O)N[C@H](Cc3ccc4ccccc4c3)C(=O)N[C@@H](CO)C(=O)N[C@@H](CC(N)=O)C(=O)N[C@H](Cc3ccc4ccccc4c3)C(=O)N[C@@H](c3ccccc3)C(=O)N2)C(=O)NC[C@@H](C(=O)N[C@@H](CCCN)C(=O)N[C@H](CCCNC(=N)N)C(=O)N[C@@H](CCCNC(=N)N)C(=O)N[C@H](C)C(N)=O)NC(=O)[C@H](CCCNC(=N)N)NC(=O)[C@@H](CCCNC(=N)N)NC1=O

>  <pchembl_value_mean>  (145) 
6.0

>  <inchi>  (145) 
InChI=1S/C103H138N32O20/c1-55(82(106)138)121-87(143)70(30-16-40-116-100(107)108)124-90(146)72(32-18-42-118-102(111)112)125-88(144)69(29-15-38-104)127-97(153)78-53-120-85(141)66-49-65-50-67(51-66)86(142)129-75(47-58-34-36-60-22-9-11-26-63(60)44-58)94(150)134-79(54-136)98(154)132-77(52-80(105)137)95(151)131-76(48-59-35-37-61-23-10-12-27-64(61)45-59)96(152)135-81(62-24-7-4-8-25-62)99(155)128-68(28-13-14-39-115-84(65)140)91(147)130-74(46-57-20-5-3-6-21-57)93(149)122-56(2)83(139)123-71(31-17-41-117-101(109)110)89(145)126-73(92(148)133-78)33-19-43-119-103(113)114/h3-12,20-27,34-37,44-45,49-51,55-56,68-79,81,136H,13-19,28-33,38-43,46-48,52-54,104H2,1-2H3,(H2,105,137)(H2,106,138)(H,115,140)(H,120,141)(H,121,143)(H,122,149)(H,123,139)(H,124,146)(H,125,144)(H,126,145)(H,127,153)(H,128,155)(H,129,142)(H,130,147)(H,131,151)(H,132,154)(H,133,148)(H,134,150)(H,135,152)(H4,107,108,116)(H4,109,110,117)(H4,111,112,118)(H4,113,114,119)/t55-,56+,68+,69+,70+,71-,72-,73+,74-,75-,76-,77+,78+,79+,81+/m1/s1

$$$$

     RDKit          2D

 42 48  0  0  0  0  0  0  0  0999 V2000
    4.8065   -8.7818    0.0000 C   0  0  0  0  0  0  0  0  0  0  0  0
    3.6918   -7.7781    0.0000 C   0  0  0  0  0  0  0  0  0  0  0  0
    4.0037   -6.3109    0.0000 C   0  0  0  0  0  0  0  0  0  0  0  0
    5.3740   -5.7008    0.0000 N   0  0  0  0  0  0  0  0  0  0  0  0
    5.2172   -4.2090    0.0000 C   0  0  0  0  0  0  0  0  0  0  0  0
    3.7500   -3.8971    0.0000 C   0  0  0  0  0  0  0  0  0  0  0  0
    3.0000   -5.1962    0.0000 N   0  0  0  0  0  0  0  0  0  0  0  0
    1.5000   -5.1962    0.0000 C   0  0  0  0  0  0  0  0  0  0  0  0
    0.7500   -3.8971    0.0000 C   0  0  0  0  0  0  0  0  0  0  0  0
    1.5000   -2.5981    0.0000 N   0  0  0  0  0  0  0  0  0  0  0  0
    0.7500   -1.2990    0.0000 C   0  0  0  0  0  0  0  0  0  0  0  0
    1.5000    0.0000    0.0000 N   0  0  0  0  0  0  0  0  0  0  0  0
    0.7500    1.2990    0.0000 C   0  0  0  0  0  0  0  0  0  0  0  0
    1.5000    2.5981    0.0000 O   0  0  0  0  0  0  0  0  0  0  0  0
    3.0000    2.5981    0.0000 C   0  0  0  0  0  0  0  0  0  0  0  0
    3.7500    3.8971    0.0000 C   0  0  0  0  0  0  0  0  0  0  0  0
    3.1399    5.2674    0.0000 C   0  0  0  0  0  0  0  0  0  0  0  0
    4.2546    6.2711    0.0000 C   0  0  0  0  0  0  0  0  0  0  0  0
    5.5537    5.5211    0.0000 C   0  0  0  0  0  0  0  0  0  0  0  0
    5.2418    4.0539    0.0000 N   0  0  0  0  0  0  0  0  0  0  0  0
    6.2455    2.9392    0.0000 C   0  0  0  0  0  0  0  0  0  0  0  0
   -0.7500    1.2990    0.0000 N   0  0  0  0  0  0  0  0  0  0  0  0
   -1.5000    0.0000    0.0000 C   0  0  0  0  0  0  0  0  0  0  0  0
   -3.0000    0.0000    0.0000 C   0  0  0  0  0  0  0  0  0  0  0  0
   -3.7500    1.2990    0.0000 F   0  0  0  0  0  0  0  0  0  0  0  0
   -3.7500   -1.2990    0.0000 C   0  0  0  0  0  0  0  0  0  0  0  0
   -5.2500   -1.2990    0.0000 C   0  0  0  0  0  0  0  0  0  0  0  0
   -6.0000    0.0000    0.0000 C   0  0  0  0  0  0  0  0  0  0  0  0
   -7.5000    0.0000    0.0000 C   0  0  0  0  0  0  0  0  0  0  0  0
   -8.2500    1.2990    0.0000 O   0  0  0  0  0  0  0  0  0  0  0  0
   -8.2500   -1.2990    0.0000 C   0  0  0  0  0  0  0  0  0  0  0  0
   -7.5000   -2.5981    0.0000 C   0  0  0  0  0  0  0  0  0  0  0  0
   -8.2500   -3.8971    0.0000 C   0  0  0  0  0  0  0  0  0  0  0  0
   -7.5000   -5.1962    0.0000 C   0  0  0  0  0  0  0  0  0  0  0  0
   -6.0000   -5.1962    0.0000 C   0  0  0  0  0  0  0  0  0  0  0  0
   -5.2500   -3.8971    0.0000 C   0  0  0  0  0  0  0  0  0  0  0  0
   -6.0000   -2.5981    0.0000 C   0  0  0  0  0  0  0  0  0  0  0  0
   -3.0000   -2.5981    0.0000 C   0  0  0  0  0  0  0  0  0  0  0  0
   -3.7500   -3.8971    0.0000 Cl  0  0  0  0  0  0  0  0  0  0  0  0
   -1.5000   -2.5981    0.0000 C   0  0  0  0  0  0  0  0  0  0  0  0
   -0.7500   -1.2990    0.0000 C   0  0  0  0  0  0  0  0  0  0  0  0
    3.0000   -2.5981    0.0000 C   0  0  0  0  0  0  0  0  0  0  0  0
  1  2  2  0
  2  3  1  0
  3  4  2  0
  4  5  1  0
  5  6  2  0
  6  7  1  0
  7  8  1  0
  8  9  1  0
  9 10  1  0
 10 11  1  0
 11 12  2  0
 12 13  1  0
 13 14  1  0
 14 15  1  0
 15 16  1  0
 16 17  1  0
 17 18  1  0
 18 19  1  0
 19 20  1  0
 20 21  1  0
 13 22  2  0
 22 23  1  0
 23 24  2  0
 24 25  1  0
 24 26  1  0
 26 27  1  0
 27 28  2  0
 28 29  1  0
 29 30  1  0
 29 31  2  0
 31 32  1  0
 32 33  2  0
 33 34  1  0
 34 35  2  0
 35 36  1  0
 36 37  2  0
 26 38  2  0
 38 39  1  0
 38 40  1  0
 40 41  2  0
 10 42  1  0
  7  3  1  0
 41 11  1  0
 42  6  1  0
 20 16  1  0
 41 23  1  0
 37 27  1  0
 37 32  1  0
M  END
>  <molecule_chembl_id>  (146) 
CHEMBL5199804

>  <canonical_smiles>  (146) 
C=Cc1ncc2n1CCN(c1nc(OCC3CCCN3C)nc3c(F)c(-c4cc(O)cc5ccccc45)c(Cl)cc13)C2

>  <pchembl_value_mean>  (146) 
6.0

>  <inchi>  (146) 
InChI=1S/C32H30ClFN6O2/c1-3-27-35-16-21-17-39(11-12-40(21)27)31-25-15-26(33)28(24-14-22(41)13-19-7-4-5-9-23(19)24)29(34)30(25)36-32(37-31)42-18-20-8-6-10-38(20)2/h3-5,7,9,13-16,20,41H,1,6,8,10-12,17-18H2,2H3

$$$$

     RDKit          2D

 44 50  0  0  0  0  0  0  0  0999 V2000
    4.8107  -10.9304    0.0000 C   0  0  0  0  0  0  0  0  0  0  0  0
    4.0607   -9.6313    0.0000 C   0  0  0  0  0  0  0  0  0  0  0  0
    4.8107   -8.3323    0.0000 C   0  0  0  0  0  0  0  0  0  0  0  0
    6.3107   -8.3323    0.0000 O   0  0  0  0  0  0  0  0  0  0  0  0
    4.0607   -7.0333    0.0000 N   0  0  0  0  0  0  0  0  0  0  0  0
    2.6118   -6.6450    0.0000 C   0  0  0  0  0  0  0  0  0  0  0  0
    3.0000   -5.1962    0.0000 C   0  0  0  0  0  0  0  0  0  0  0  0
    3.7500   -3.8971    0.0000 C   0  0  0  0  0  0  0  0  0  0  0  0
    3.0000   -2.5981    0.0000 C   0  0  0  0  0  0  0  0  0  0  0  0
    1.5000   -2.5981    0.0000 N   0  0  0  0  0  0  0  0  0  0  0  0
    0.7500   -1.2990    0.0000 C   0  0  0  0  0  0  0  0  0  0  0  0
    1.5000    0.0000    0.0000 N   0  0  0  0  0  0  0  0  0  0  0  0
    0.7500    1.2990    0.0000 C   0  0  0  0  0  0  0  0  0  0  0  0
    1.5000    2.5981    0.0000 S   0  0  0  0  0  0  0  0  0  0  0  0
    3.0000    2.5981    0.0000 C   0  0  0  0  0  0  0  0  0  0  0  0
    3.7500    1.2990    0.0000 C   0  0  0  0  0  0  0  0  0  0  0  0
    5.2500    1.2990    0.0000 C   0  0  0  0  0  0  0  0  0  0  0  0
    6.0000    2.5981    0.0000 N   0  0  0  0  0  0  0  0  0  0  0  0
    7.5000    2.5981    0.0000 C   0  0  0  0  0  0  0  0  0  0  0  0
    8.2500    1.2990    0.0000 C   0  0  0  0  0  0  0  0  0  0  0  0
    5.2500    3.8971    0.0000 C   0  0  0  0  0  0  0  0  0  0  0  0
    3.7500    3.8971    0.0000 C   0  0  0  0  0  0  0  0  0  0  0  0
   -0.7500    1.2990    0.0000 N   0  0  0  0  0  0  0  0  0  0  0  0
   -1.5000    0.0000    0.0000 C   0  0  0  0  0  0  0  0  0  0  0  0
   -3.0000    0.0000    0.0000 C   0  0  0  0  0  0  0  0  0  0  0  0
   -3.7500    1.2990    0.0000 F   0  0  0  0  0  0  0  0  0  0  0  0
   -3.7500   -1.2990    0.0000 C   0  0  0  0  0  0  0  0  0  0  0  0
   -5.2500   -1.2990    0.0000 C   0  0  0  0  0  0  0  0  0  0  0  0
   -6.0000    0.0000    0.0000 C   0  0  0  0  0  0  0  0  0  0  0  0
   -5.2500    1.2990    0.0000 C   0  0  0  0  0  0  0  0  0  0  0  0
   -7.5000    0.0000    0.0000 C   0  0  0  0  0  0  0  0  0  0  0  0
   -8.2500   -1.2990    0.0000 C   0  0  0  0  0  0  0  0  0  0  0  0
   -7.5000   -2.5981    0.0000 C   0  0  0  0  0  0  0  0  0  0  0  0
   -7.9635   -4.0247    0.0000 N   0  0  0  0  0  0  0  0  0  0  0  0
   -6.7500   -4.9063    0.0000 N   0  0  0  0  0  0  0  0  0  0  0  0
   -5.5365   -4.0247    0.0000 C   0  0  0  0  0  0  0  0  0  0  0  0
   -6.0000   -2.5981    0.0000 C   0  0  0  0  0  0  0  0  0  0  0  0
   -3.0000   -2.5981    0.0000 C   0  0  0  0  0  0  0  0  0  0  0  0
   -3.7500   -3.8971    0.0000 Cl  0  0  0  0  0  0  0  0  0  0  0  0
   -1.5000   -2.5981    0.0000 C   0  0  0  0  0  0  0  0  0  0  0  0
   -0.7500   -1.2990    0.0000 C   0  0  0  0  0  0  0  0  0  0  0  0
    0.7500   -3.8971    0.0000 C   0  0  0  0  0  0  0  0  0  0  0  0
    1.5000   -5.1962    0.0000 C   0  0  0  0  0  0  0  0  0  0  0  0
    4.4489   -5.5844    0.0000 C   0  0  0  0  0  0  0  0  0  0  0  0
  1  2  2  0
  2  3  1  0
  3  4  2  0
  3  5  1  0
  5  6  1  0
  6  7  1  0
  7  8  1  0
  8  9  1  0
  9 10  1  0
 10 11  1  0
 11 12  2  0
 12 13  1  0
 13 14  1  0
 14 15  1  0
 15 16  1  0
 16 17  1  0
 17 18  1  0
 18 19  1  0
 19 20  1  0
 18 21  1  0
 21 22  1  0
 13 23  2  0
 23 24  1  0
 24 25  2  0
 25 26  1  0
 25 27  1  0
 27 28  1  0
 28 29  2  0
 29 30  1  0
 29 31  1  0
 31 32  2  0
 32 33  1  0
 33 34  1  0
 34 35  1  0
 35 36  2  0
 36 37  1  0
 27 38  2  0
 38 39  1  0
 38 40  1  0
 40 41  2  0
 10 42  1  0
 42 43  1  0
  7 44  1  0
 44  5  1  0
 43  7  1  0
 41 11  1  0
 22 15  1  0
 41 24  1  0
 37 28  1  0
 37 33  2  0
M  END
>  <molecule_chembl_id>  (147) 
CHEMBL5181293

>  <canonical_smiles>  (147) 
C=CC(=O)N1CC2(CCN(c3nc(SC4CCN(CC)CC4)nc4c(F)c(-c5c(C)ccc6[nH]ncc56)c(Cl)cc34)CC2)C1

>  <pchembl_value_mean>  (147) 
6.03

>  <inchi>  (147) 
InChI=1S/C33H37ClFN7OS/c1-4-26(43)42-18-33(19-42)10-14-41(15-11-33)31-22-16-24(34)28(27-20(3)6-7-25-23(27)17-36-39-25)29(35)30(22)37-32(38-31)44-21-8-12-40(5-2)13-9-21/h4,6-7,16-17,21H,1,5,8-15,18-19H2,2-3H3,(H,36,39)

$$$$

     RDKit          2D

155164  0  0  0  0  0  0  0  0999 V2000
   15.4792   -0.1915    0.0000 C   0  0  0  0  0  0  0  0  0  0  0  0
   13.9792   -0.1915    0.0000 C   0  0  0  0  0  0  0  0  0  0  0  0
   13.8112   -1.6821    0.0000 N   0  0  0  0  0  0  0  0  0  0  0  0
   13.3158   -3.0979    0.0000 C   0  0  0  0  0  0  0  0  0  0  0  0
   14.6672   -3.7487    0.0000 O   0  0  0  0  0  0  0  0  0  0  0  0
   12.5177   -4.3680    0.0000 C   0  0  0  0  0  0  0  0  0  0  0  0
   13.6905   -5.3032    0.0000 C   0  0  0  0  0  0  0  0  0  0  0  0
   13.4669   -6.7865    0.0000 C   0  0  0  0  0  0  0  0  0  0  0  0
   12.0706   -7.3345    0.0000 C   0  0  0  0  0  0  0  0  0  0  0  0
   11.8471   -8.8177    0.0000 C   0  0  0  0  0  0  0  0  0  0  0  0
   13.0198   -9.7530    0.0000 C   0  0  0  0  0  0  0  0  0  0  0  0
   14.4161   -9.2050    0.0000 C   0  0  0  0  0  0  0  0  0  0  0  0
   14.6397   -7.7217    0.0000 C   0  0  0  0  0  0  0  0  0  0  0  0
   11.4571   -5.4287    0.0000 N   0  0  0  0  0  0  0  0  0  0  0  0
   10.1870   -6.2267    0.0000 C   0  0  0  0  0  0  0  0  0  0  0  0
   10.8378   -7.5782    0.0000 O   0  0  0  0  0  0  0  0  0  0  0  0
    8.7712   -6.7221    0.0000 C   0  0  0  0  0  0  0  0  0  0  0  0
    7.2806   -6.8901    0.0000 C   0  0  0  0  0  0  0  0  0  0  0  0
    5.7900   -6.7221    0.0000 C   0  0  0  0  0  0  0  0  0  0  0  0
    4.3742   -6.2267    0.0000 C   0  0  0  0  0  0  0  0  0  0  0  0
    3.1041   -5.4287    0.0000 C   0  0  0  0  0  0  0  0  0  0  0  0
    2.0435   -4.3680    0.0000 N   0  0  0  0  0  0  0  0  0  0  0  0
    1.2454   -3.0979    0.0000 C   0  0  0  0  0  0  0  0  0  0  0  0
   -0.1060   -3.7487    0.0000 O   0  0  0  0  0  0  0  0  0  0  0  0
    0.7500   -1.2990    0.0000 C   0  0  0  0  0  0  0  0  0  0  0  0
    1.5000    0.0000    0.0000 C   0  0  0  0  0  0  0  0  0  0  0  0
    0.7500    1.2990    0.0000 C   0  0  0  0  0  0  0  0  0  0  0  0
   -0.7500    1.2990    0.0000 C   0  0  0  0  0  0  0  0  0  0  0  0
   -1.5000    0.0000    0.0000 C   0  0  0  0  0  0  0  0  0  0  0  0
   -0.7500   -1.2990    0.0000 C   0  0  0  0  0  0  0  0  0  0  0  0
   -2.3002   -1.3623    0.0000 C   0  0  0  0  0  0  0  0  0  0  0  0
   -3.7181    0.3198    0.0000 O   0  0  0  0  0  0  0  0  0  0  0  0
   -3.2158   -2.3372    0.0000 N   0  0  0  0  0  0  0  0  0  0  0  0
   -3.8819   -3.4970    0.0000 C   0  0  0  0  0  0  0  0  0  0  0  0
   -5.9040   -2.6302    0.0000 C   0  0  0  0  0  0  0  0  0  0  0  0
   -6.0815   -1.1408    0.0000 C   0  0  0  0  0  0  0  0  0  0  0  0
   -4.8803   -0.2423    0.0000 C   0  0  0  0  0  0  0  0  0  0  0  0
   -5.0578    1.2471    0.0000 C   0  0  0  0  0  0  0  0  0  0  0  0
   -6.4365    1.8381    0.0000 C   0  0  0  0  0  0  0  0  0  0  0  0
   -6.6140    3.3276    0.0000 C   0  0  0  0  0  0  0  0  0  0  0  0
   -7.9927    3.9186    0.0000 C   0  0  0  0  0  0  0  0  0  0  0  0
   -9.1939    3.0201    0.0000 C   0  0  0  0  0  0  0  0  0  0  0  0
   -9.0163    1.5307    0.0000 C   0  0  0  0  0  0  0  0  0  0  0  0
   -7.6377    0.9397    0.0000 C   0  0  0  0  0  0  0  0  0  0  0  0
   -7.4602   -0.5498    0.0000 C   0  0  0  0  0  0  0  0  0  0  0  0
   -4.2626   -4.7792    0.0000 C   0  0  0  0  0  0  0  0  0  0  0  0
   -6.4300   -4.4021    0.0000 O   0  0  0  0  0  0  0  0  0  0  0  0
   -4.3373   -6.1146    0.0000 N   0  0  0  0  0  0  0  0  0  0  0  0
   -4.1021   -7.4312    0.0000 C   0  0  0  0  0  0  0  0  0  0  0  0
   -6.2082   -8.0669    0.0000 C   0  0  0  0  0  0  0  0  0  0  0  0
   -7.3016   -7.0400    0.0000 O   0  0  0  0  0  0  0  0  0  0  0  0
   -3.5696   -8.6581    0.0000 C   0  0  0  0  0  0  0  0  0  0  0  0
   -5.4723   -9.7624    0.0000 O   0  0  0  0  0  0  0  0  0  0  0  0
   -2.7685   -9.7291    0.0000 N   0  0  0  0  0  0  0  0  0  0  0  0
   -1.7420  -10.5864    0.0000 C   0  0  0  0  0  0  0  0  0  0  0  0
   -2.9467  -12.4273    0.0000 C   0  0  0  0  0  0  0  0  0  0  0  0
   -4.4444  -12.3434    0.0000 C   0  0  0  0  0  0  0  0  0  0  0  0
   -5.2658  -13.5985    0.0000 N   0  0  0  0  0  0  0  0  0  0  0  0
   -5.1206  -11.0045    0.0000 O   0  0  0  0  0  0  0  0  0  0  0  0
   -0.5454  -11.1840    0.0000 C   0  0  0  0  0  0  0  0  0  0  0  0
   -1.2931  -13.2530    0.0000 O   0  0  0  0  0  0  0  0  0  0  0  0
    0.7567  -11.4895    0.0000 N   0  0  0  0  0  0  0  0  0  0  0  0
    2.0942  -11.4864    0.0000 C   0  0  0  0  0  0  0  0  0  0  0  0
    2.3546  -13.6710    0.0000 C   0  0  0  0  0  0  0  0  0  0  0  0
    1.1534  -14.5694    0.0000 C   0  0  0  0  0  0  0  0  0  0  0  0
   -0.2253  -13.9785    0.0000 C   0  0  0  0  0  0  0  0  0  0  0  0
   -1.4264  -14.8769    0.0000 C   0  0  0  0  0  0  0  0  0  0  0  0
   -1.2489  -16.3664    0.0000 C   0  0  0  0  0  0  0  0  0  0  0  0
   -2.4501  -17.2648    0.0000 C   0  0  0  0  0  0  0  0  0  0  0  0
   -2.2725  -18.7543    0.0000 C   0  0  0  0  0  0  0  0  0  0  0  0
   -0.8939  -19.3453    0.0000 C   0  0  0  0  0  0  0  0  0  0  0  0
    0.3073  -18.4468    0.0000 C   0  0  0  0  0  0  0  0  0  0  0  0
    0.1298  -16.9574    0.0000 C   0  0  0  0  0  0  0  0  0  0  0  0
    1.3309  -16.0589    0.0000 C   0  0  0  0  0  0  0  0  0  0  0  0
    3.3949  -11.1751    0.0000 C   0  0  0  0  0  0  0  0  0  0  0  0
    4.1520  -13.2407    0.0000 O   0  0  0  0  0  0  0  0  0  0  0  0
    4.5887  -10.5721    0.0000 N   0  0  0  0  0  0  0  0  0  0  0  0
    5.6114   -9.7101    0.0000 C   0  0  0  0  0  0  0  0  0  0  0  0
    7.2150  -11.2162    0.0000 C   0  0  0  0  0  0  0  0  0  0  0  0
    6.8724  -12.6765    0.0000 C   0  0  0  0  0  0  0  0  0  0  0  0
    7.9658  -13.7034    0.0000 C   0  0  0  0  0  0  0  0  0  0  0  0
    9.4018  -13.2699    0.0000 C   0  0  0  0  0  0  0  0  0  0  0  0
    9.7444  -11.8096    0.0000 C   0  0  0  0  0  0  0  0  0  0  0  0
    8.6510  -10.7827    0.0000 C   0  0  0  0  0  0  0  0  0  0  0  0
    6.4076   -8.6354    0.0000 C   0  0  0  0  0  0  0  0  0  0  0  0
    8.3154   -9.7311    0.0000 O   0  0  0  0  0  0  0  0  0  0  0  0
    8.1358   -8.0625    0.0000 N   0  0  0  0  0  0  0  0  0  0  0  0
    1.2454    2.7149    0.0000 C   0  0  0  0  0  0  0  0  0  0  0  0
    0.0946    3.1047    0.0000 O   0  0  0  0  0  0  0  0  0  0  0  0
    2.0435    3.9849    0.0000 N   0  0  0  0  0  0  0  0  0  0  0  0
    3.1041    5.0456    0.0000 C   0  0  0  0  0  0  0  0  0  0  0  0
    4.3742    5.8437    0.0000 C   0  0  0  0  0  0  0  0  0  0  0  0
    3.7234    7.1951    0.0000 C   0  0  0  0  0  0  0  0  0  0  0  0
    2.2276    7.3072    0.0000 O   0  0  0  0  0  0  0  0  0  0  0  0
    4.5684    8.4345    0.0000 N   0  0  0  0  0  0  0  0  0  0  0  0
    3.9175    9.7859    0.0000 C   0  0  0  0  0  0  0  0  0  0  0  0
    4.7625   11.0253    0.0000 C   0  0  0  0  0  0  0  0  0  0  0  0
    4.1117   12.3767    0.0000 C   0  0  0  0  0  0  0  0  0  0  0  0
    4.9567   13.6161    0.0000 C   0  0  0  0  0  0  0  0  0  0  0  0
    4.3059   14.9675    0.0000 N   0  0  0  0  0  0  0  0  0  0  0  0
    2.4217    9.8980    0.0000 C   0  0  0  0  0  0  0  0  0  0  0  0
    1.5768    8.6587    0.0000 O   0  0  0  0  0  0  0  0  0  0  0  0
    1.7709   11.2495    0.0000 N   0  0  0  0  0  0  0  0  0  0  0  0
    0.2751   11.3616    0.0000 C   0  0  0  0  0  0  0  0  0  0  0  0
   -0.3757   12.7130    0.0000 C   0  0  0  0  0  0  0  0  0  0  0  0
   -1.8715   12.8251    0.0000 C   0  0  0  0  0  0  0  0  0  0  0  0
   -2.5224   14.1766    0.0000 C   0  0  0  0  0  0  0  0  0  0  0  0
   -4.0182   14.2887    0.0000 N   0  0  0  0  0  0  0  0  0  0  0  0
   -4.6690   15.6401    0.0000 C   0  0  0  0  0  0  0  0  0  0  0  0
   -3.8240   16.8795    0.0000 N   0  0  0  0  0  0  0  0  0  0  0  0
   -6.1648   15.7522    0.0000 N   0  0  0  0  0  0  0  0  0  0  0  0
   -0.5699   10.1222    0.0000 C   0  0  0  0  0  0  0  0  0  0  0  0
    0.0810    8.7708    0.0000 O   0  0  0  0  0  0  0  0  0  0  0  0
   -2.0657   10.2343    0.0000 N   0  0  0  0  0  0  0  0  0  0  0  0
   -2.9107    8.9949    0.0000 C   0  0  0  0  0  0  0  0  0  0  0  0
   -4.4065    9.1070    0.0000 C   0  0  0  0  0  0  0  0  0  0  0  0
   -5.2514    7.8677    0.0000 C   0  0  0  0  0  0  0  0  0  0  0  0
   -6.7473    7.9798    0.0000 C   0  0  0  0  0  0  0  0  0  0  0  0
   -7.5922    6.7404    0.0000 C   0  0  0  0  0  0  0  0  0  0  0  0
   -6.9414    5.3890    0.0000 C   0  0  0  0  0  0  0  0  0  0  0  0
   -5.4456    5.2769    0.0000 C   0  0  0  0  0  0  0  0  0  0  0  0
   -4.6006    6.5162    0.0000 C   0  0  0  0  0  0  0  0  0  0  0  0
   -2.2598    7.6435    0.0000 C   0  0  0  0  0  0  0  0  0  0  0  0
   -0.7640    7.5314    0.0000 O   0  0  0  0  0  0  0  0  0  0  0  0
   -3.1048    6.4041    0.0000 N   0  0  0  0  0  0  0  0  0  0  0  0
   -2.4540    5.0527    0.0000 C   0  0  0  0  0  0  0  0  0  0  0  0
   -3.2990    3.8133    0.0000 C   0  0  0  0  0  0  0  0  0  0  0  0
   -0.9582    4.9406    0.0000 C   0  0  0  0  0  0  0  0  0  0  0  0
   -0.1132    6.1799    0.0000 N   0  0  0  0  0  0  0  0  0  0  0  0
   -0.5684    3.7898    0.0000 O   0  0  0  0  0  0  0  0  0  0  0  0
    5.7900    6.3391    0.0000 N   0  0  0  0  0  0  0  0  0  0  0  0
    7.2806    6.5070    0.0000 C   0  0  0  0  0  0  0  0  0  0  0  0
    7.2806    8.0070    0.0000 O   0  0  0  0  0  0  0  0  0  0  0  0
    8.7712    6.3391    0.0000 C   0  0  0  0  0  0  0  0  0  0  0  0
    9.1050    7.8015    0.0000 C   0  0  0  0  0  0  0  0  0  0  0  0
   10.5383    8.2436    0.0000 C   0  0  0  0  0  0  0  0  0  0  0  0
   10.8721    9.7060    0.0000 C   0  0  0  0  0  0  0  0  0  0  0  0
   12.3055   10.1481    0.0000 N   0  0  0  0  0  0  0  0  0  0  0  0
   12.6392   11.6105    0.0000 C   0  0  0  0  0  0  0  0  0  0  0  0
   11.5397   12.6308    0.0000 N   0  0  0  0  0  0  0  0  0  0  0  0
   14.0726   12.0527    0.0000 N   0  0  0  0  0  0  0  0  0  0  0  0
   10.1870    5.8437    0.0000 N   0  0  0  0  0  0  0  0  0  0  0  0
   11.4571    5.0456    0.0000 C   0  0  0  0  0  0  0  0  0  0  0  0
   12.3923    6.2184    0.0000 O   0  0  0  0  0  0  0  0  0  0  0  0
   12.5177    3.9849    0.0000 C   0  0  0  0  0  0  0  0  0  0  0  0
   13.6905    4.9202    0.0000 C   0  0  0  0  0  0  0  0  0  0  0  0
   15.0868    4.3722    0.0000 C   0  0  0  0  0  0  0  0  0  0  0  0
   16.2596    5.3074    0.0000 C   0  0  0  0  0  0  0  0  0  0  0  0
   17.6559    4.7594    0.0000 N   0  0  0  0  0  0  0  0  0  0  0  0
   18.8286    5.6946    0.0000 C   0  0  0  0  0  0  0  0  0  0  0  0
   18.6050    7.1779    0.0000 N   0  0  0  0  0  0  0  0  0  0  0  0
   20.2249    5.1466    0.0000 N   0  0  0  0  0  0  0  0  0  0  0  0
   13.3158    2.7149    0.0000 N   0  0  0  0  0  0  0  0  0  0  0  0
   13.8112    1.2990    0.0000 C   0  0  0  0  0  0  0  0  0  0  0  0
   15.2736    1.6328    0.0000 O   0  0  0  0  0  0  0  0  0  0  0  0
  2  1  1  6
  2  3  1  0
  3  4  1  0
  4  5  2  0
  4  6  1  0
  6  7  1  1
  7  8  1  0
  8  9  2  0
  9 10  1  0
 10 11  2  0
 11 12  1  0
 12 13  2  0
  6 14  1  0
 14 15  1  0
 15 16  2  0
 15 17  1  0
 17 18  1  0
 18 19  1  0
 19 20  1  0
 20 21  1  0
 21 22  1  0
 22 23  1  0
 23 24  2  0
 23 25  1  0
 25 26  1  0
 26 27  2  0
 27 28  1  0
 28 29  2  0
 29 30  1  0
 29 31  1  0
 31 32  2  0
 31 33  1  0
 33 34  1  0
 34 35  1  1
 35 36  1  0
 36 37  2  0
 37 38  1  0
 38 39  2  0
 39 40  1  0
 40 41  2  0
 41 42  1  0
 42 43  2  0
 43 44  1  0
 44 45  2  0
 34 46  1  0
 46 47  2  0
 46 48  1  0
 48 49  1  0
 49 50  1  6
 50 51  1  0
 49 52  1  0
 52 53  2  0
 52 54  1  0
 54 55  1  0
 55 56  1  6
 56 57  1  0
 57 58  1  0
 57 59  2  0
 55 60  1  0
 60 61  2  0
 60 62  1  0
 62 63  1  0
 63 64  1  1
 64 65  1  0
 65 66  2  0
 66 67  1  0
 67 68  2  0
 68 69  1  0
 69 70  2  0
 70 71  1  0
 71 72  2  0
 72 73  1  0
 73 74  2  0
 63 75  1  0
 75 76  2  0
 75 77  1  0
 77 78  1  0
 78 79  1  6
 79 80  2  0
 80 81  1  0
 81 82  2  0
 82 83  1  0
 83 84  2  0
 78 85  1  0
 85 86  2  0
 85 87  1  0
 27 88  1  0
 88 89  2  0
 88 90  1  0
 90 91  1  0
 91 92  1  0
 92 93  1  1
 93 94  2  0
 93 95  1  0
 95 96  1  0
 96 97  1  6
 97 98  1  0
 98 99  1  0
 99100  1  0
 96101  1  0
101102  2  0
101103  1  0
103104  1  0
104105  1  1
105106  1  0
106107  1  0
107108  1  0
108109  1  0
109110  2  0
109111  1  0
104112  1  0
112113  2  0
112114  1  0
114115  1  0
115116  1  6
116117  1  0
117118  1  0
118119  1  0
119120  1  0
120121  1  0
121122  1  0
115123  1  0
123124  2  0
123125  1  0
125126  1  0
126127  1  1
126128  1  0
128129  1  0
128130  2  0
 92131  1  0
131132  1  0
132133  2  0
132134  1  0
134135  1  6
135136  1  0
136137  1  0
137138  1  0
138139  1  0
139140  2  0
139141  1  0
134142  1  0
142143  1  0
143144  2  0
143145  1  0
145146  1  1
146147  1  0
147148  1  0
148149  1  0
149150  1  0
150151  2  0
150152  1  0
145153  1  0
153154  1  0
154155  2  0
154  2  1  0
 13  8  1  0
 17 87  1  1
122117  1  0
 30 25  2  0
 45 36  1  0
 74 65  1  0
 84 79  1  0
 44 39  1  0
 73 68  1  0
M  END
>  <molecule_chembl_id>  (148) 
CHEMBL4877546

>  <canonical_smiles>  (148) 
C[C@@H]1NC(=O)[C@@H](Cc2ccccc2)NC(=O)[C@@H]2CCCCNC(=O)c3cc(cc(c3)C(=O)N[C@H](Cc3ccc4ccccc4c3)C(=O)N[C@@H](CO)C(=O)N[C@@H](CC(N)=O)C(=O)N[C@H](Cc3ccc4ccccc4c3)C(=O)N[C@@H](c3ccccc3)C(=O)N2)C(=O)NC[C@@H](C(=O)N[C@@H](CCCN)C(=O)N[C@H](CCCNC(=N)N)C(=O)N[C@@H](CC2CCCCC2)C(=O)N[C@H](C)C(N)=O)NC(=O)[C@H](CCCNC(=N)N)NC(=O)[C@@H](CCCNC(=N)N)NC1=O

>  <pchembl_value_mean>  (148) 
6.03

>  <inchi>  (148) 
InChI=1S/C106H141N29O20/c1-58(86(109)138)121-96(148)77(48-60-22-6-3-7-23-60)129-94(146)75(35-20-44-118-105(112)113)124-91(143)73(33-18-41-107)126-101(153)82-56-120-89(141)70-52-69-53-71(54-70)90(142)128-79(50-62-37-39-64-26-12-14-30-67(64)46-62)98(150)134-83(57-136)102(154)132-81(55-84(108)137)99(151)131-80(51-63-38-40-65-27-13-15-31-68(65)47-63)100(152)135-85(66-28-10-5-11-29-66)103(155)127-72(32-16-17-42-116-88(69)140)93(145)130-78(49-61-24-8-4-9-25-61)97(149)122-59(2)87(139)123-74(34-19-43-117-104(110)111)92(144)125-76(95(147)133-82)36-21-45-119-106(114)115/h4-5,8-15,24-31,37-40,46-47,52-54,58-60,72-83,85,136H,3,6-7,16-23,32-36,41-45,48-51,55-57,107H2,1-2H3,(H2,108,137)(H2,109,138)(H,116,140)(H,120,141)(H,121,148)(H,122,149)(H,123,139)(H,124,143)(H,125,144)(H,126,153)(H,127,155)(H,128,142)(H,129,146)(H,130,145)(H,131,151)(H,132,154)(H,133,147)(H,134,150)(H,135,152)(H4,110,111,117)(H4,112,113,118)(H4,114,115,119)/t58-,59+,72+,73+,74-,75-,76+,77+,78-,79-,80-,81+,82+,83+,85+/m1/s1

$$$$

     RDKit          2D

 48 54  0  0  0  0  0  0  0  0999 V2000
    0.6266   -8.4557    0.0000 C   0  0  0  0  0  0  0  0  0  0  0  0
    1.6873   -7.3950    0.0000 O   0  0  0  0  0  0  0  0  0  0  0  0
    1.2990   -5.9462    0.0000 C   0  0  0  0  0  0  0  0  0  0  0  0
    2.0490   -4.6471    0.0000 C   0  0  0  0  0  0  0  0  0  0  0  0
    0.7500   -3.8971    0.0000 C   0  0  0  0  0  0  0  0  0  0  0  0
   -0.5490   -3.1471    0.0000 N   0  0  0  0  0  0  0  0  0  0  0  0
    1.5000   -2.5981    0.0000 C   0  0  0  0  0  0  0  0  0  0  0  0
    3.0000   -2.5981    0.0000 O   0  0  0  0  0  0  0  0  0  0  0  0
    0.7500   -1.2990    0.0000 N   0  0  0  0  0  0  0  0  0  0  0  0
    1.5000    0.0000    0.0000 C   0  0  0  0  0  0  0  0  0  0  0  0
    0.7500    1.2990    0.0000 C   0  0  0  0  0  0  0  0  0  0  0  0
   -0.7500    1.2990    0.0000 N   0  0  0  0  0  0  0  0  0  0  0  0
   -1.2980    2.6953    0.0000 C   0  0  0  0  0  0  0  0  0  0  0  0
   -0.1984    3.7156    0.0000 N   0  0  0  0  0  0  0  0  0  0  0  0
   -0.5322    5.1780    0.0000 C   0  0  0  0  0  0  0  0  0  0  0  0
    0.5674    6.1983    0.0000 O   0  0  0  0  0  0  0  0  0  0  0  0
    2.0007    5.7561    0.0000 C   0  0  0  0  0  0  0  0  0  0  0  0
    3.1003    6.7764    0.0000 C   0  0  0  0  0  0  0  0  0  0  0  0
    2.9212    8.2657    0.0000 C   0  0  0  0  0  0  0  0  0  0  0  0
    4.2822    8.8962    0.0000 C   0  0  0  0  0  0  0  0  0  0  0  0
    5.3025    7.7966    0.0000 C   0  0  0  0  0  0  0  0  0  0  0  0
    4.5720    6.4865    0.0000 N   0  0  0  0  0  0  0  0  0  0  0  0
    5.2026    5.1255    0.0000 C   0  0  0  0  0  0  0  0  0  0  0  0
   -1.9656    5.6201    0.0000 N   0  0  0  0  0  0  0  0  0  0  0  0
   -3.0652    4.5999    0.0000 C   0  0  0  0  0  0  0  0  0  0  0  0
   -4.4179    5.2590    0.0000 C   0  0  0  0  0  0  0  0  0  0  0  0
   -5.5906    4.3238    0.0000 C   0  0  0  0  0  0  0  0  0  0  0  0
   -6.9869    4.8718    0.0000 C   0  0  0  0  0  0  0  0  0  0  0  0
   -8.1597    3.9365    0.0000 N   0  0  0  0  0  0  0  0  0  0  0  0
   -9.5560    4.4845    0.0000 C   0  0  0  0  0  0  0  0  0  0  0  0
  -10.7287    3.5493    0.0000 N   0  0  0  0  0  0  0  0  0  0  0  0
   -9.7795    5.9678    0.0000 C   0  0  0  0  0  0  0  0  0  0  0  0
   -8.6068    6.9030    0.0000 C   0  0  0  0  0  0  0  0  0  0  0  0
   -8.8304    8.3863    0.0000 C   0  0  0  0  0  0  0  0  0  0  0  0
   -7.2105    6.3550    0.0000 C   0  0  0  0  0  0  0  0  0  0  0  0
   -6.0377    7.2903    0.0000 C   0  0  0  0  0  0  0  0  0  0  0  0
   -4.8650    8.2255    0.0000 F   0  0  0  0  0  0  0  0  0  0  0  0
   -6.9730    8.4630    0.0000 F   0  0  0  0  0  0  0  0  0  0  0  0
   -5.1025    6.1175    0.0000 F   0  0  0  0  0  0  0  0  0  0  0  0
   -5.3670    2.8405    0.0000 C   0  0  0  0  0  0  0  0  0  0  0  0
   -6.5398    1.9053    0.0000 Cl  0  0  0  0  0  0  0  0  0  0  0  0
   -3.9707    2.2925    0.0000 C   0  0  0  0  0  0  0  0  0  0  0  0
   -2.7314    3.1375    0.0000 C   0  0  0  0  0  0  0  0  0  0  0  0
   -4.0828    0.7967    0.0000 O   0  0  0  0  0  0  0  0  0  0  0  0
   -2.9832   -0.2236    0.0000 C   0  0  0  0  0  0  0  0  0  0  0  0
   -1.5000    0.0000    0.0000 C   0  0  0  0  0  0  0  0  0  0  0  0
   -0.7500   -1.2990    0.0000 C   0  0  0  0  0  0  0  0  0  0  0  0
   -0.0000   -5.1962    0.0000 C   0  0  0  0  0  0  0  0  0  0  0  0
  1  2  1  0
  2  3  1  0
  3  4  1  0
  4  5  1  0
  5  6  1  0
  5  7  1  0
  7  8  2  0
  7  9  1  0
  9 10  1  0
 10 11  1  0
 11 12  1  0
 12 13  1  0
 13 14  1  0
 14 15  2  0
 15 16  1  0
 16 17  1  0
 18 17  1  6
 18 19  1  0
 19 20  1  0
 20 21  1  0
 21 22  1  0
 22 23  1  0
 15 24  1  0
 24 25  2  0
 25 26  1  0
 26 27  2  0
 27 28  1  0
 28 29  2  0
 29 30  1  0
 30 31  1  0
 30 32  2  0
 32 33  1  0
 33 34  1  0
 33 35  2  0
 35 36  1  0
 36 37  1  0
 36 38  1  0
 36 39  1  0
 27 40  1  0
 40 41  1  0
 40 42  2  0
 42 43  1  0
 42 44  1  0
 44 45  1  0
 46 45  1  1
 46 47  1  0
  5 48  1  0
 48  3  1  0
 47  9  1  0
 46 12  1  0
 43 13  2  0
 22 18  1  0
 43 25  1  0
 35 28  1  0
M  END
>  <molecule_chembl_id>  (149) 
CHEMBL5420106

>  <canonical_smiles>  (149) 
COC1CC(N)(C(=O)N2CCN3c4nc(OC[C@@H]5CCCN5C)nc5cc(-c6nc(N)cc(C)c6C(F)(F)F)c(Cl)c(c45)OC[C@@H]3C2)C1

>  <pchembl_value_mean>  (149) 
6.06

>  <inchi>  (149) 
InChI=1S/C32H38ClF3N8O4/c1-16-9-22(37)40-26(24(16)32(34,35)36)20-10-21-23-27(25(20)33)47-15-18-13-43(29(45)31(38)11-19(12-31)46-3)7-8-44(18)28(23)41-30(39-21)48-14-17-5-4-6-42(17)2/h9-10,17-19H,4-8,11-15,38H2,1-3H3,(H2,37,40)/t17-,18-,19?,31?/m0/s1

$$$$

     RDKit          2D

154163  0  0  0  0  0  0  0  0999 V2000
   15.4792   -0.1915    0.0000 C   0  0  0  0  0  0  0  0  0  0  0  0
   13.9792   -0.1915    0.0000 C   0  0  0  0  0  0  0  0  0  0  0  0
   13.8112   -1.6821    0.0000 N   0  0  0  0  0  0  0  0  0  0  0  0
   13.3158   -3.0979    0.0000 C   0  0  0  0  0  0  0  0  0  0  0  0
   14.6672   -3.7487    0.0000 O   0  0  0  0  0  0  0  0  0  0  0  0
   12.5177   -4.3680    0.0000 C   0  0  0  0  0  0  0  0  0  0  0  0
   13.6905   -5.3032    0.0000 C   0  0  0  0  0  0  0  0  0  0  0  0
   13.4669   -6.7865    0.0000 C   0  0  0  0  0  0  0  0  0  0  0  0
   12.0706   -7.3345    0.0000 C   0  0  0  0  0  0  0  0  0  0  0  0
   11.8471   -8.8177    0.0000 C   0  0  0  0  0  0  0  0  0  0  0  0
   13.0198   -9.7530    0.0000 C   0  0  0  0  0  0  0  0  0  0  0  0
   14.4161   -9.2050    0.0000 C   0  0  0  0  0  0  0  0  0  0  0  0
   14.6397   -7.7217    0.0000 C   0  0  0  0  0  0  0  0  0  0  0  0
   11.4571   -5.4287    0.0000 N   0  0  0  0  0  0  0  0  0  0  0  0
   10.1870   -6.2267    0.0000 C   0  0  0  0  0  0  0  0  0  0  0  0
   10.8378   -7.5782    0.0000 O   0  0  0  0  0  0  0  0  0  0  0  0
    8.7712   -6.7221    0.0000 C   0  0  0  0  0  0  0  0  0  0  0  0
    7.2806   -6.8901    0.0000 C   0  0  0  0  0  0  0  0  0  0  0  0
    5.7900   -6.7221    0.0000 C   0  0  0  0  0  0  0  0  0  0  0  0
    4.3742   -6.2267    0.0000 C   0  0  0  0  0  0  0  0  0  0  0  0
    3.1041   -5.4287    0.0000 C   0  0  0  0  0  0  0  0  0  0  0  0
    2.0435   -4.3680    0.0000 N   0  0  0  0  0  0  0  0  0  0  0  0
    1.2454   -3.0979    0.0000 C   0  0  0  0  0  0  0  0  0  0  0  0
   -0.1060   -3.7487    0.0000 O   0  0  0  0  0  0  0  0  0  0  0  0
    0.7500   -1.2990    0.0000 C   0  0  0  0  0  0  0  0  0  0  0  0
    1.5000    0.0000    0.0000 C   0  0  0  0  0  0  0  0  0  0  0  0
    0.7500    1.2990    0.0000 C   0  0  0  0  0  0  0  0  0  0  0  0
   -0.7500    1.2990    0.0000 C   0  0  0  0  0  0  0  0  0  0  0  0
   -1.5000    0.0000    0.0000 C   0  0  0  0  0  0  0  0  0  0  0  0
   -0.7500   -1.2990    0.0000 C   0  0  0  0  0  0  0  0  0  0  0  0
   -2.3002   -1.3623    0.0000 C   0  0  0  0  0  0  0  0  0  0  0  0
   -3.7181    0.3198    0.0000 O   0  0  0  0  0  0  0  0  0  0  0  0
   -3.2158   -2.3372    0.0000 N   0  0  0  0  0  0  0  0  0  0  0  0
   -3.8819   -3.4970    0.0000 C   0  0  0  0  0  0  0  0  0  0  0  0
   -5.9040   -2.6302    0.0000 C   0  0  0  0  0  0  0  0  0  0  0  0
   -6.0815   -1.1408    0.0000 C   0  0  0  0  0  0  0  0  0  0  0  0
   -4.8803   -0.2423    0.0000 C   0  0  0  0  0  0  0  0  0  0  0  0
   -5.0578    1.2471    0.0000 C   0  0  0  0  0  0  0  0  0  0  0  0
   -6.4365    1.8381    0.0000 C   0  0  0  0  0  0  0  0  0  0  0  0
   -6.6140    3.3276    0.0000 C   0  0  0  0  0  0  0  0  0  0  0  0
   -7.9927    3.9186    0.0000 C   0  0  0  0  0  0  0  0  0  0  0  0
   -9.1939    3.0201    0.0000 C   0  0  0  0  0  0  0  0  0  0  0  0
   -9.0163    1.5307    0.0000 C   0  0  0  0  0  0  0  0  0  0  0  0
   -7.6377    0.9397    0.0000 C   0  0  0  0  0  0  0  0  0  0  0  0
   -7.4602   -0.5498    0.0000 C   0  0  0  0  0  0  0  0  0  0  0  0
   -4.2626   -4.7792    0.0000 C   0  0  0  0  0  0  0  0  0  0  0  0
   -6.4300   -4.4021    0.0000 O   0  0  0  0  0  0  0  0  0  0  0  0
   -4.3373   -6.1146    0.0000 N   0  0  0  0  0  0  0  0  0  0  0  0
   -4.1021   -7.4312    0.0000 C   0  0  0  0  0  0  0  0  0  0  0  0
   -6.2082   -8.0669    0.0000 C   0  0  0  0  0  0  0  0  0  0  0  0
   -7.3016   -7.0400    0.0000 O   0  0  0  0  0  0  0  0  0  0  0  0
   -3.5696   -8.6581    0.0000 C   0  0  0  0  0  0  0  0  0  0  0  0
   -5.4723   -9.7624    0.0000 O   0  0  0  0  0  0  0  0  0  0  0  0
   -2.7685   -9.7291    0.0000 N   0  0  0  0  0  0  0  0  0  0  0  0
   -1.7420  -10.5864    0.0000 C   0  0  0  0  0  0  0  0  0  0  0  0
   -2.9467  -12.4273    0.0000 C   0  0  0  0  0  0  0  0  0  0  0  0
   -4.4444  -12.3434    0.0000 C   0  0  0  0  0  0  0  0  0  0  0  0
   -5.2658  -13.5985    0.0000 N   0  0  0  0  0  0  0  0  0  0  0  0
   -5.1206  -11.0045    0.0000 O   0  0  0  0  0  0  0  0  0  0  0  0
   -0.5454  -11.1840    0.0000 C   0  0  0  0  0  0  0  0  0  0  0  0
   -1.2931  -13.2530    0.0000 O   0  0  0  0  0  0  0  0  0  0  0  0
    0.7567  -11.4895    0.0000 N   0  0  0  0  0  0  0  0  0  0  0  0
    2.0942  -11.4864    0.0000 C   0  0  0  0  0  0  0  0  0  0  0  0
    2.3546  -13.6710    0.0000 C   0  0  0  0  0  0  0  0  0  0  0  0
    1.1534  -14.5694    0.0000 C   0  0  0  0  0  0  0  0  0  0  0  0
   -0.2253  -13.9785    0.0000 C   0  0  0  0  0  0  0  0  0  0  0  0
   -1.4264  -14.8769    0.0000 C   0  0  0  0  0  0  0  0  0  0  0  0
   -1.2489  -16.3664    0.0000 C   0  0  0  0  0  0  0  0  0  0  0  0
   -2.4501  -17.2648    0.0000 C   0  0  0  0  0  0  0  0  0  0  0  0
   -2.2725  -18.7543    0.0000 C   0  0  0  0  0  0  0  0  0  0  0  0
   -0.8939  -19.3453    0.0000 C   0  0  0  0  0  0  0  0  0  0  0  0
    0.3073  -18.4468    0.0000 C   0  0  0  0  0  0  0  0  0  0  0  0
    0.1298  -16.9574    0.0000 C   0  0  0  0  0  0  0  0  0  0  0  0
    1.3309  -16.0589    0.0000 C   0  0  0  0  0  0  0  0  0  0  0  0
    3.3949  -11.1751    0.0000 C   0  0  0  0  0  0  0  0  0  0  0  0
    4.1520  -13.2407    0.0000 O   0  0  0  0  0  0  0  0  0  0  0  0
    4.5887  -10.5721    0.0000 N   0  0  0  0  0  0  0  0  0  0  0  0
    5.6114   -9.7101    0.0000 C   0  0  0  0  0  0  0  0  0  0  0  0
    7.2150  -11.2162    0.0000 C   0  0  0  0  0  0  0  0  0  0  0  0
    6.8724  -12.6765    0.0000 C   0  0  0  0  0  0  0  0  0  0  0  0
    7.9658  -13.7034    0.0000 C   0  0  0  0  0  0  0  0  0  0  0  0
    9.4018  -13.2699    0.0000 C   0  0  0  0  0  0  0  0  0  0  0  0
    9.7444  -11.8096    0.0000 C   0  0  0  0  0  0  0  0  0  0  0  0
    8.6510  -10.7827    0.0000 C   0  0  0  0  0  0  0  0  0  0  0  0
    6.4076   -8.6354    0.0000 C   0  0  0  0  0  0  0  0  0  0  0  0
    8.3154   -9.7311    0.0000 O   0  0  0  0  0  0  0  0  0  0  0  0
    8.1358   -8.0625    0.0000 N   0  0  0  0  0  0  0  0  0  0  0  0
    1.2454    2.7149    0.0000 C   0  0  0  0  0  0  0  0  0  0  0  0
    0.0946    3.1047    0.0000 O   0  0  0  0  0  0  0  0  0  0  0  0
    2.0435    3.9849    0.0000 N   0  0  0  0  0  0  0  0  0  0  0  0
    3.1041    5.0456    0.0000 C   0  0  0  0  0  0  0  0  0  0  0  0
    4.3742    5.8437    0.0000 C   0  0  0  0  0  0  0  0  0  0  0  0
    3.7234    7.1951    0.0000 C   0  0  0  0  0  0  0  0  0  0  0  0
    2.2276    7.3072    0.0000 O   0  0  0  0  0  0  0  0  0  0  0  0
    4.5684    8.4345    0.0000 N   0  0  0  0  0  0  0  0  0  0  0  0
    3.9175    9.7859    0.0000 C   0  0  0  0  0  0  0  0  0  0  0  0
    4.7625   11.0253    0.0000 C   0  0  0  0  0  0  0  0  0  0  0  0
    4.1117   12.3767    0.0000 C   0  0  0  0  0  0  0  0  0  0  0  0
    4.9567   13.6161    0.0000 N   0  0  0  0  0  0  0  0  0  0  0  0
    2.4217    9.8980    0.0000 C   0  0  0  0  0  0  0  0  0  0  0  0
    1.5768    8.6587    0.0000 O   0  0  0  0  0  0  0  0  0  0  0  0
    1.7709   11.2495    0.0000 N   0  0  0  0  0  0  0  0  0  0  0  0
    0.2751   11.3616    0.0000 C   0  0  0  0  0  0  0  0  0  0  0  0
   -0.3757   12.7130    0.0000 C   0  0  0  0  0  0  0  0  0  0  0  0
   -1.8715   12.8251    0.0000 C   0  0  0  0  0  0  0  0  0  0  0  0
   -2.5224   14.1766    0.0000 C   0  0  0  0  0  0  0  0  0  0  0  0
   -4.0182   14.2887    0.0000 N   0  0  0  0  0  0  0  0  0  0  0  0
   -4.6690   15.6401    0.0000 C   0  0  0  0  0  0  0  0  0  0  0  0
   -3.8240   16.8795    0.0000 N   0  0  0  0  0  0  0  0  0  0  0  0
   -6.1648   15.7522    0.0000 N   0  0  0  0  0  0  0  0  0  0  0  0
   -0.5699   10.1222    0.0000 C   0  0  0  0  0  0  0  0  0  0  0  0
    0.0810    8.7708    0.0000 O   0  0  0  0  0  0  0  0  0  0  0  0
   -2.0657   10.2343    0.0000 N   0  0  0  0  0  0  0  0  0  0  0  0
   -2.9107    8.9949    0.0000 C   0  0  0  0  0  0  0  0  0  0  0  0
   -4.4065    9.1070    0.0000 C   0  0  0  0  0  0  0  0  0  0  0  0
   -5.2514    7.8677    0.0000 C   0  0  0  0  0  0  0  0  0  0  0  0
   -6.7473    7.9798    0.0000 C   0  0  0  0  0  0  0  0  0  0  0  0
   -7.5922    6.7404    0.0000 C   0  0  0  0  0  0  0  0  0  0  0  0
   -6.9414    5.3890    0.0000 C   0  0  0  0  0  0  0  0  0  0  0  0
   -5.4456    5.2769    0.0000 C   0  0  0  0  0  0  0  0  0  0  0  0
   -4.6006    6.5162    0.0000 C   0  0  0  0  0  0  0  0  0  0  0  0
   -2.2598    7.6435    0.0000 C   0  0  0  0  0  0  0  0  0  0  0  0
   -0.7640    7.5314    0.0000 O   0  0  0  0  0  0  0  0  0  0  0  0
   -3.1048    6.4041    0.0000 N   0  0  0  0  0  0  0  0  0  0  0  0
   -2.4540    5.0527    0.0000 C   0  0  0  0  0  0  0  0  0  0  0  0
   -3.2990    3.8133    0.0000 C   0  0  0  0  0  0  0  0  0  0  0  0
   -0.9582    4.9406    0.0000 C   0  0  0  0  0  0  0  0  0  0  0  0
   -0.1132    6.1799    0.0000 N   0  0  0  0  0  0  0  0  0  0  0  0
   -0.5684    3.7898    0.0000 O   0  0  0  0  0  0  0  0  0  0  0  0
    5.7900    6.3391    0.0000 N   0  0  0  0  0  0  0  0  0  0  0  0
    7.2806    6.5070    0.0000 C   0  0  0  0  0  0  0  0  0  0  0  0
    7.2806    8.0070    0.0000 O   0  0  0  0  0  0  0  0  0  0  0  0
    8.7712    6.3391    0.0000 C   0  0  0  0  0  0  0  0  0  0  0  0
    9.1050    7.8015    0.0000 C   0  0  0  0  0  0  0  0  0  0  0  0
   10.5383    8.2436    0.0000 C   0  0  0  0  0  0  0  0  0  0  0  0
   10.8721    9.7060    0.0000 C   0  0  0  0  0  0  0  0  0  0  0  0
   12.3055   10.1481    0.0000 N   0  0  0  0  0  0  0  0  0  0  0  0
   12.6392   11.6105    0.0000 C   0  0  0  0  0  0  0  0  0  0  0  0
   11.5397   12.6308    0.0000 N   0  0  0  0  0  0  0  0  0  0  0  0
   14.0726   12.0527    0.0000 N   0  0  0  0  0  0  0  0  0  0  0  0
   10.1870    5.8437    0.0000 N   0  0  0  0  0  0  0  0  0  0  0  0
   11.4571    5.0456    0.0000 C   0  0  0  0  0  0  0  0  0  0  0  0
   12.3923    6.2184    0.0000 O   0  0  0  0  0  0  0  0  0  0  0  0
   12.5177    3.9849    0.0000 C   0  0  0  0  0  0  0  0  0  0  0  0
   13.6905    4.9202    0.0000 C   0  0  0  0  0  0  0  0  0  0  0  0
   15.0868    4.3722    0.0000 C   0  0  0  0  0  0  0  0  0  0  0  0
   16.2596    5.3074    0.0000 C   0  0  0  0  0  0  0  0  0  0  0  0
   17.6559    4.7594    0.0000 N   0  0  0  0  0  0  0  0  0  0  0  0
   18.8286    5.6946    0.0000 C   0  0  0  0  0  0  0  0  0  0  0  0
   18.6050    7.1779    0.0000 N   0  0  0  0  0  0  0  0  0  0  0  0
   20.2249    5.1466    0.0000 N   0  0  0  0  0  0  0  0  0  0  0  0
   13.3158    2.7149    0.0000 N   0  0  0  0  0  0  0  0  0  0  0  0
   13.8112    1.2990    0.0000 C   0  0  0  0  0  0  0  0  0  0  0  0
   15.2736    1.6328    0.0000 O   0  0  0  0  0  0  0  0  0  0  0  0
  2  1  1  6
  2  3  1  0
  3  4  1  0
  4  5  2  0
  4  6  1  0
  6  7  1  1
  7  8  1  0
  8  9  2  0
  9 10  1  0
 10 11  2  0
 11 12  1  0
 12 13  2  0
  6 14  1  0
 14 15  1  0
 15 16  2  0
 15 17  1  0
 17 18  1  0
 18 19  1  0
 19 20  1  0
 20 21  1  0
 21 22  1  0
 22 23  1  0
 23 24  2  0
 23 25  1  0
 25 26  1  0
 26 27  2  0
 27 28  1  0
 28 29  2  0
 29 30  1  0
 29 31  1  0
 31 32  2  0
 31 33  1  0
 33 34  1  0
 34 35  1  1
 35 36  1  0
 36 37  2  0
 37 38  1  0
 38 39  2  0
 39 40  1  0
 40 41  2  0
 41 42  1  0
 42 43  2  0
 43 44  1  0
 44 45  2  0
 34 46  1  0
 46 47  2  0
 46 48  1  0
 48 49  1  0
 49 50  1  6
 50 51  1  0
 49 52  1  0
 52 53  2  0
 52 54  1  0
 54 55  1  0
 55 56  1  6
 56 57  1  0
 57 58  1  0
 57 59  2  0
 55 60  1  0
 60 61  2  0
 60 62  1  0
 62 63  1  0
 63 64  1  1
 64 65  1  0
 65 66  2  0
 66 67  1  0
 67 68  2  0
 68 69  1  0
 69 70  2  0
 70 71  1  0
 71 72  2  0
 72 73  1  0
 73 74  2  0
 63 75  1  0
 75 76  2  0
 75 77  1  0
 77 78  1  0
 78 79  1  6
 79 80  2  0
 80 81  1  0
 81 82  2  0
 82 83  1  0
 83 84  2  0
 78 85  1  0
 85 86  2  0
 85 87  1  0
 27 88  1  0
 88 89  2  0
 88 90  1  0
 90 91  1  0
 91 92  1  0
 92 93  1  1
 93 94  2  0
 93 95  1  0
 95 96  1  0
 96 97  1  6
 97 98  1  0
 98 99  1  0
 96100  1  0
100101  2  0
100102  1  0
102103  1  0
103104  1  1
104105  1  0
105106  1  0
106107  1  0
107108  1  0
108109  2  0
108110  1  0
103111  1  0
111112  2  0
111113  1  0
113114  1  0
114115  1  6
115116  1  0
116117  2  0
117118  1  0
118119  2  0
119120  1  0
120121  2  0
114122  1  0
122123  2  0
122124  1  0
124125  1  0
125126  1  1
125127  1  0
127128  1  0
127129  2  0
 92130  1  0
130131  1  0
131132  2  0
131133  1  0
133134  1  6
134135  1  0
135136  1  0
136137  1  0
137138  1  0
138139  2  0
138140  1  0
133141  1  0
141142  1  0
142143  2  0
142144  1  0
144145  1  1
145146  1  0
146147  1  0
147148  1  0
148149  1  0
149150  2  0
149151  1  0
144152  1  0
152153  1  0
153154  2  0
153  2  1  0
 13  8  1  0
 17 87  1  1
121116  1  0
 30 25  2  0
 45 36  1  0
 74 65  1  0
 84 79  1  0
 44 39  1  0
 73 68  1  0
M  END
>  <molecule_chembl_id>  (150) 
CHEMBL4852356

>  <canonical_smiles>  (150) 
C[C@@H]1NC(=O)[C@@H](Cc2ccccc2)NC(=O)[C@@H]2CCCCNC(=O)c3cc(cc(c3)C(=O)N[C@H](Cc3ccc4ccccc4c3)C(=O)N[C@@H](CO)C(=O)N[C@@H](CC(N)=O)C(=O)N[C@H](Cc3ccc4ccccc4c3)C(=O)N[C@@H](c3ccccc3)C(=O)N2)C(=O)NC[C@@H](C(=O)N[C@@H](CCN)C(=O)N[C@H](CCCNC(=N)N)C(=O)N[C@@H](Cc2ccccc2)C(=O)N[C@H](C)C(N)=O)NC(=O)[C@H](CCCNC(=N)N)NC(=O)[C@@H](CCCNC(=N)N)NC1=O

>  <pchembl_value_mean>  (150) 
6.06

>  <inchi>  (150) 
InChI=1S/C105H133N29O20/c1-57(85(108)137)120-95(147)76(47-59-21-6-3-7-22-59)128-92(144)73(33-19-43-117-104(111)112)124-94(146)75(39-40-106)125-100(152)81-55-119-88(140)69-51-68-52-70(53-69)89(141)127-78(49-61-35-37-63-25-12-14-29-66(63)45-61)97(149)133-82(56-135)101(153)131-80(54-83(107)136)98(150)130-79(50-62-36-38-64-26-13-15-30-67(64)46-62)99(151)134-84(65-27-10-5-11-28-65)102(154)126-71(31-16-17-41-115-87(68)139)91(143)129-77(48-60-23-8-4-9-24-60)96(148)121-58(2)86(138)122-72(32-18-42-116-103(109)110)90(142)123-74(93(145)132-81)34-20-44-118-105(113)114/h3-15,21-30,35-38,45-46,51-53,57-58,71-82,84,135H,16-20,31-34,39-44,47-50,54-56,106H2,1-2H3,(H2,107,136)(H2,108,137)(H,115,139)(H,119,140)(H,120,147)(H,121,148)(H,122,138)(H,123,142)(H,124,146)(H,125,152)(H,126,154)(H,127,141)(H,128,144)(H,129,143)(H,130,150)(H,131,153)(H,132,145)(H,133,149)(H,134,151)(H4,109,110,116)(H4,111,112,117)(H4,113,114,118)/t57-,58+,71+,72-,73-,74+,75+,76+,77-,78-,79-,80+,81+,82+,84+/m1/s1

$$$$

     RDKit          2D

 39 45  0  0  0  0  0  0  0  0999 V2000
   -2.6401   -3.1891    0.0000 O   0  0  0  0  0  0  0  0  0  0  0  0
   -1.2135   -2.7256    0.0000 C   0  0  0  0  0  0  0  0  0  0  0  0
   -0.0000   -3.6073    0.0000 N   0  0  0  0  0  0  0  0  0  0  0  0
    1.2135   -2.7256    0.0000 C   0  0  0  0  0  0  0  0  0  0  0  0
    2.6401   -3.1891    0.0000 C   0  0  0  0  0  0  0  0  0  0  0  0
    3.8536   -2.3075    0.0000 C   0  0  0  0  0  0  0  0  0  0  0  0
    3.8536   -0.8075    0.0000 C   0  0  0  0  0  0  0  0  0  0  0  0
    5.1527   -0.0575    0.0000 N   0  0  0  0  0  0  0  0  0  0  0  0
    5.1527    1.4425    0.0000 C   0  0  0  0  0  0  0  0  0  0  0  0
    6.4517    2.1925    0.0000 C   0  0  0  0  0  0  0  0  0  0  0  0
    7.7508    1.4425    0.0000 C   0  0  0  0  0  0  0  0  0  0  0  0
    9.0498    2.1925    0.0000 C   0  0  0  0  0  0  0  0  0  0  0  0
    9.0498    3.6925    0.0000 C   0  0  0  0  0  0  0  0  0  0  0  0
   10.1645    4.6962    0.0000 C   0  0  0  0  0  0  0  0  0  0  0  0
    9.5544    6.0665    0.0000 C   0  0  0  0  0  0  0  0  0  0  0  0
    8.0626    5.9098    0.0000 N   0  0  0  0  0  0  0  0  0  0  0  0
    7.0589    7.0245    0.0000 C   0  0  0  0  0  0  0  0  0  0  0  0
    7.5224    8.4511    0.0000 C   0  0  0  0  0  0  0  0  0  0  0  0
    8.9897    8.7629    0.0000 C   0  0  0  0  0  0  0  0  0  0  0  0
    9.4532   10.1895    0.0000 C   0  0  0  0  0  0  0  0  0  0  0  0
    8.4495   11.3042    0.0000 C   0  0  0  0  0  0  0  0  0  0  0  0
    6.9823   10.9924    0.0000 C   0  0  0  0  0  0  0  0  0  0  0  0
    6.5188    9.5658    0.0000 C   0  0  0  0  0  0  0  0  0  0  0  0
    7.7508    4.4425    0.0000 C   0  0  0  0  0  0  0  0  0  0  0  0
    6.4517    3.6925    0.0000 C   0  0  0  0  0  0  0  0  0  0  0  0
    5.0672   -3.1891    0.0000 N   0  0  0  0  0  0  0  0  0  0  0  0
    4.6036   -4.6157    0.0000 C   0  0  0  0  0  0  0  0  0  0  0  0
    5.3536   -5.9148    0.0000 C   0  0  0  0  0  0  0  0  0  0  0  0
    4.6036   -7.2138    0.0000 C   0  0  0  0  0  0  0  0  0  0  0  0
    3.1036   -7.2138    0.0000 C   0  0  0  0  0  0  0  0  0  0  0  0
    2.3536   -5.9148    0.0000 C   0  0  0  0  0  0  0  0  0  0  0  0
    3.1036   -4.6157    0.0000 C   0  0  0  0  0  0  0  0  0  0  0  0
    0.7500   -1.2990    0.0000 C   0  0  0  0  0  0  0  0  0  0  0  0
    1.5000    0.0000    0.0000 C   0  0  0  0  0  0  0  0  0  0  0  0
    0.7500    1.2990    0.0000 C   0  0  0  0  0  0  0  0  0  0  0  0
    1.5000    2.5981    0.0000 O   0  0  0  0  0  0  0  0  0  0  0  0
   -0.7500    1.2990    0.0000 C   0  0  0  0  0  0  0  0  0  0  0  0
   -1.5000    0.0000    0.0000 C   0  0  0  0  0  0  0  0  0  0  0  0
   -0.7500   -1.2990    0.0000 C   0  0  0  0  0  0  0  0  0  0  0  0
  1  2  2  0
  2  3  1  0
  3  4  1  0
  4  5  1  1
  5  6  2  0
  6  7  1  0
  7  8  1  0
  8  9  1  0
  9 10  1  0
 10 11  2  0
 11 12  1  0
 12 13  2  0
 13 14  1  0
 14 15  2  0
 15 16  1  0
 16 17  1  0
 17 18  1  0
 18 19  2  0
 19 20  1  0
 20 21  2  0
 21 22  1  0
 22 23  2  0
 16 24  1  0
 24 25  2  0
  6 26  1  0
 26 27  1  0
 27 28  2  0
 28 29  1  0
 29 30  2  0
 30 31  1  0
 31 32  2  0
  4 33  1  0
 33 34  2  0
 34 35  1  0
 35 36  1  0
 35 37  2  0
 37 38  1  0
 38 39  2  0
 39  2  1  0
 32  5  1  0
 39 33  1  0
 25 10  1  0
 32 27  1  0
 24 13  1  0
 23 18  1  0
M  END
>  <molecule_chembl_id>  (151) 
CHEMBL4788500

>  <canonical_smiles>  (151) 
O=C1N[C@H](c2c(CNCc3ccc4ccn(Cc5ccccc5)c4c3)[nH]c3ccccc23)c2cc(O)ccc21

>  <pchembl_value_mean>  (151) 
6.06

>  <inchi>  (151) 
InChI=1S/C33H28N4O2/c38-24-12-13-25-27(17-24)32(36-33(25)39)31-26-8-4-5-9-28(26)35-29(31)19-34-18-22-10-11-23-14-15-37(30(23)16-22)20-21-6-2-1-3-7-21/h1-17,32,34-35,38H,18-20H2,(H,36,39)/t32-/m0/s1

$$$$

     RDKit          2D

157166  0  0  0  0  0  0  0  0999 V2000
   10.7457  -10.5769    0.0000 C   0  0  0  0  0  0  0  0  0  0  0  0
    9.2499  -10.6890    0.0000 C   0  0  0  0  0  0  0  0  0  0  0  0
    8.5991  -12.0404    0.0000 N   0  0  0  0  0  0  0  0  0  0  0  0
    7.1033  -12.1525    0.0000 C   0  0  0  0  0  0  0  0  0  0  0  0
    6.2583  -10.9132    0.0000 O   0  0  0  0  0  0  0  0  0  0  0  0
    6.4525  -13.5040    0.0000 C   0  0  0  0  0  0  0  0  0  0  0  0
    7.2975  -14.7434    0.0000 C   0  0  0  0  0  0  0  0  0  0  0  0
    8.7933  -14.6313    0.0000 C   0  0  0  0  0  0  0  0  0  0  0  0
    9.6382  -15.8706    0.0000 C   0  0  0  0  0  0  0  0  0  0  0  0
   11.1341  -15.7585    0.0000 C   0  0  0  0  0  0  0  0  0  0  0  0
   11.7849  -14.4071    0.0000 C   0  0  0  0  0  0  0  0  0  0  0  0
   10.9399  -13.1677    0.0000 C   0  0  0  0  0  0  0  0  0  0  0  0
    9.4441  -13.2798    0.0000 C   0  0  0  0  0  0  0  0  0  0  0  0
    4.9567  -13.6161    0.0000 N   0  0  0  0  0  0  0  0  0  0  0  0
    4.1117  -12.3767    0.0000 C   0  0  0  0  0  0  0  0  0  0  0  0
    4.7625  -11.0253    0.0000 O   0  0  0  0  0  0  0  0  0  0  0  0
    2.6159  -12.4888    0.0000 C   0  0  0  0  0  0  0  0  0  0  0  0
    1.9651  -13.8403    0.0000 C   0  0  0  0  0  0  0  0  0  0  0  0
    2.8100  -15.0796    0.0000 C   0  0  0  0  0  0  0  0  0  0  0  0
    2.1592  -16.4311    0.0000 C   0  0  0  0  0  0  0  0  0  0  0  0
    3.0042  -17.6705    0.0000 N   0  0  0  0  0  0  0  0  0  0  0  0
    2.3534  -19.0219    0.0000 C   0  0  0  0  0  0  0  0  0  0  0  0
    0.8576  -19.1340    0.0000 N   0  0  0  0  0  0  0  0  0  0  0  0
    3.1984  -20.2613    0.0000 N   0  0  0  0  0  0  0  0  0  0  0  0
    1.7709  -11.2495    0.0000 N   0  0  0  0  0  0  0  0  0  0  0  0
    2.4217   -9.8980    0.0000 C   0  0  0  0  0  0  0  0  0  0  0  0
    3.9175   -9.7859    0.0000 O   0  0  0  0  0  0  0  0  0  0  0  0
    1.5768   -8.6587    0.0000 C   0  0  0  0  0  0  0  0  0  0  0  0
    0.0810   -8.7708    0.0000 C   0  0  0  0  0  0  0  0  0  0  0  0
   -0.5699  -10.1222    0.0000 C   0  0  0  0  0  0  0  0  0  0  0  0
   -2.0657  -10.2343    0.0000 C   0  0  0  0  0  0  0  0  0  0  0  0
   -2.7165  -11.5858    0.0000 N   0  0  0  0  0  0  0  0  0  0  0  0
    2.2276   -7.3072    0.0000 N   0  0  0  0  0  0  0  0  0  0  0  0
    3.7234   -7.1951    0.0000 C   0  0  0  0  0  0  0  0  0  0  0  0
    4.5684   -8.4345    0.0000 O   0  0  0  0  0  0  0  0  0  0  0  0
    4.3742   -5.8437    0.0000 C   0  0  0  0  0  0  0  0  0  0  0  0
    3.1041   -5.0456    0.0000 C   0  0  0  0  0  0  0  0  0  0  0  0
    2.0435   -3.9849    0.0000 N   0  0  0  0  0  0  0  0  0  0  0  0
    1.2454   -2.7149    0.0000 C   0  0  0  0  0  0  0  0  0  0  0  0
   -0.1060   -3.3657    0.0000 O   0  0  0  0  0  0  0  0  0  0  0  0
    0.7500   -1.2990    0.0000 C   0  0  0  0  0  0  0  0  0  0  0  0
    1.5000    0.0000    0.0000 C   0  0  0  0  0  0  0  0  0  0  0  0
    0.7500    1.2990    0.0000 C   0  0  0  0  0  0  0  0  0  0  0  0
   -0.7500    1.2990    0.0000 C   0  0  0  0  0  0  0  0  0  0  0  0
   -1.5000    0.0000    0.0000 C   0  0  0  0  0  0  0  0  0  0  0  0
   -0.7500   -1.2990    0.0000 C   0  0  0  0  0  0  0  0  0  0  0  0
   -2.7514    0.8271    0.0000 C   0  0  0  0  0  0  0  0  0  0  0  0
   -3.7181   -0.3198    0.0000 O   0  0  0  0  0  0  0  0  0  0  0  0
   -3.7782    1.9205    0.0000 N   0  0  0  0  0  0  0  0  0  0  0  0
   -4.5253    3.2212    0.0000 C   0  0  0  0  0  0  0  0  0  0  0  0
   -5.9040    2.6302    0.0000 C   0  0  0  0  0  0  0  0  0  0  0  0
   -6.0815    1.1408    0.0000 C   0  0  0  0  0  0  0  0  0  0  0  0
   -4.8803    0.2423    0.0000 C   0  0  0  0  0  0  0  0  0  0  0  0
   -5.0578   -1.2471    0.0000 C   0  0  0  0  0  0  0  0  0  0  0  0
   -6.4365   -1.8381    0.0000 C   0  0  0  0  0  0  0  0  0  0  0  0
   -6.6140   -3.3276    0.0000 C   0  0  0  0  0  0  0  0  0  0  0  0
   -7.9927   -3.9186    0.0000 C   0  0  0  0  0  0  0  0  0  0  0  0
   -9.1939   -3.0201    0.0000 C   0  0  0  0  0  0  0  0  0  0  0  0
   -9.0163   -1.5307    0.0000 C   0  0  0  0  0  0  0  0  0  0  0  0
   -7.6377   -0.9397    0.0000 C   0  0  0  0  0  0  0  0  0  0  0  0
   -7.4602    0.5498    0.0000 C   0  0  0  0  0  0  0  0  0  0  0  0
   -4.9522    4.6592    0.0000 C   0  0  0  0  0  0  0  0  0  0  0  0
   -6.4300    4.4021    0.0000 O   0  0  0  0  0  0  0  0  0  0  0  0
   -5.0361    6.1568    0.0000 N   0  0  0  0  0  0  0  0  0  0  0  0
   -4.7722    7.6335    0.0000 C   0  0  0  0  0  0  0  0  0  0  0  0
   -6.2082    8.0669    0.0000 C   0  0  0  0  0  0  0  0  0  0  0  0
   -6.5509    9.5273    0.0000 O   0  0  0  0  0  0  0  0  0  0  0  0
   -4.1750    9.0094    0.0000 C   0  0  0  0  0  0  0  0  0  0  0  0
   -5.4723    9.7624    0.0000 O   0  0  0  0  0  0  0  0  0  0  0  0
   -3.2765   10.2106    0.0000 N   0  0  0  0  0  0  0  0  0  0  0  0
   -2.1253   11.1722    0.0000 C   0  0  0  0  0  0  0  0  0  0  0  0
   -2.9467   12.4273    0.0000 C   0  0  0  0  0  0  0  0  0  0  0  0
   -2.2705   13.7662    0.0000 O   0  0  0  0  0  0  0  0  0  0  0  0
   -0.7833   11.8423    0.0000 C   0  0  0  0  0  0  0  0  0  0  0  0
   -1.2931   13.2530    0.0000 O   0  0  0  0  0  0  0  0  0  0  0  0
    0.6770   12.1849    0.0000 N   0  0  0  0  0  0  0  0  0  0  0  0
    2.1770   12.1815    0.0000 C   0  0  0  0  0  0  0  0  0  0  0  0
    2.3546   13.6710    0.0000 C   0  0  0  0  0  0  0  0  0  0  0  0
    1.1534   14.5694    0.0000 C   0  0  0  0  0  0  0  0  0  0  0  0
   -0.2253   13.9785    0.0000 C   0  0  0  0  0  0  0  0  0  0  0  0
   -1.4264   14.8769    0.0000 C   0  0  0  0  0  0  0  0  0  0  0  0
   -1.2489   16.3664    0.0000 C   0  0  0  0  0  0  0  0  0  0  0  0
   -2.4501   17.2648    0.0000 C   0  0  0  0  0  0  0  0  0  0  0  0
   -2.2725   18.7543    0.0000 C   0  0  0  0  0  0  0  0  0  0  0  0
   -0.8939   19.3453    0.0000 C   0  0  0  0  0  0  0  0  0  0  0  0
    0.3073   18.4468    0.0000 C   0  0  0  0  0  0  0  0  0  0  0  0
    0.1298   16.9574    0.0000 C   0  0  0  0  0  0  0  0  0  0  0  0
    1.3309   16.0589    0.0000 C   0  0  0  0  0  0  0  0  0  0  0  0
    3.6358   11.8323    0.0000 C   0  0  0  0  0  0  0  0  0  0  0  0
    4.1520   13.2407    0.0000 O   0  0  0  0  0  0  0  0  0  0  0  0
    4.9747   11.1561    0.0000 N   0  0  0  0  0  0  0  0  0  0  0  0
    6.1216   10.1893    0.0000 C   0  0  0  0  0  0  0  0  0  0  0  0
    7.2150   11.2162    0.0000 C   0  0  0  0  0  0  0  0  0  0  0  0
    8.6510   10.7827    0.0000 C   0  0  0  0  0  0  0  0  0  0  0  0
    9.7444   11.8096    0.0000 C   0  0  0  0  0  0  0  0  0  0  0  0
    9.4018   13.2699    0.0000 C   0  0  0  0  0  0  0  0  0  0  0  0
    7.9658   13.7034    0.0000 C   0  0  0  0  0  0  0  0  0  0  0  0
    6.8724   12.6765    0.0000 C   0  0  0  0  0  0  0  0  0  0  0  0
    7.0146    8.9841    0.0000 C   0  0  0  0  0  0  0  0  0  0  0  0
    8.3154    9.7311    0.0000 O   0  0  0  0  0  0  0  0  0  0  0  0
    7.6056    7.6054    0.0000 N   0  0  0  0  0  0  0  0  0  0  0  0
    8.7712    6.7221    0.0000 C   0  0  0  0  0  0  0  0  0  0  0  0
    7.2806    6.1901    0.0000 C   0  0  0  0  0  0  0  0  0  0  0  0
    5.9458    6.0397    0.0000 C   0  0  0  0  0  0  0  0  0  0  0  0
    4.6779    5.5960    0.0000 C   0  0  0  0  0  0  0  0  0  0  0  0
    3.5406    4.8814    0.0000 C   0  0  0  0  0  0  0  0  0  0  0  0
    2.5907    3.9316    0.0000 N   0  0  0  0  0  0  0  0  0  0  0  0
    1.5931    2.4904    0.0000 C   0  0  0  0  0  0  0  0  0  0  0  0
   -0.1060    3.7487    0.0000 O   0  0  0  0  0  0  0  0  0  0  0  0
   10.1870    6.2267    0.0000 C   0  0  0  0  0  0  0  0  0  0  0  0
   10.8378    7.5782    0.0000 O   0  0  0  0  0  0  0  0  0  0  0  0
   11.4571    5.4287    0.0000 N   0  0  0  0  0  0  0  0  0  0  0  0
   12.5177    4.3680    0.0000 C   0  0  0  0  0  0  0  0  0  0  0  0
   13.6905    5.3032    0.0000 C   0  0  0  0  0  0  0  0  0  0  0  0
   15.0868    4.7552    0.0000 C   0  0  0  0  0  0  0  0  0  0  0  0
   15.3104    3.2720    0.0000 C   0  0  0  0  0  0  0  0  0  0  0  0
   16.7067    2.7240    0.0000 C   0  0  0  0  0  0  0  0  0  0  0  0
   17.8794    3.6592    0.0000 C   0  0  0  0  0  0  0  0  0  0  0  0
   17.6559    5.1425    0.0000 C   0  0  0  0  0  0  0  0  0  0  0  0
   16.2596    5.6905    0.0000 C   0  0  0  0  0  0  0  0  0  0  0  0
   13.3158    3.0979    0.0000 C   0  0  0  0  0  0  0  0  0  0  0  0
   14.6672    3.7487    0.0000 O   0  0  0  0  0  0  0  0  0  0  0  0
   13.8112    1.6821    0.0000 N   0  0  0  0  0  0  0  0  0  0  0  0
   13.9792    0.1915    0.0000 C   0  0  0  0  0  0  0  0  0  0  0  0
   15.4792    0.1915    0.0000 C   0  0  0  0  0  0  0  0  0  0  0  0
   16.2292   -1.1075    0.0000 C   0  0  0  0  0  0  0  0  0  0  0  0
   17.7292   -1.1075    0.0000 C   0  0  0  0  0  0  0  0  0  0  0  0
   18.4792   -2.4065    0.0000 N   0  0  0  0  0  0  0  0  0  0  0  0
   18.4792    0.1915    0.0000 O   0  0  0  0  0  0  0  0  0  0  0  0
   13.8112   -1.2990    0.0000 C   0  0  0  0  0  0  0  0  0  0  0  0
   15.2736   -1.6328    0.0000 O   0  0  0  0  0  0  0  0  0  0  0  0
   13.3158   -2.7149    0.0000 N   0  0  0  0  0  0  0  0  0  0  0  0
   12.5177   -3.9849    0.0000 C   0  0  0  0  0  0  0  0  0  0  0  0
   13.6905   -4.9202    0.0000 C   0  0  0  0  0  0  0  0  0  0  0  0
   13.4669   -6.4034    0.0000 C   0  0  0  0  0  0  0  0  0  0  0  0
   14.6397   -7.3387    0.0000 C   0  0  0  0  0  0  0  0  0  0  0  0
   14.4161   -8.8219    0.0000 N   0  0  0  0  0  0  0  0  0  0  0  0
   15.5889   -9.7571    0.0000 C   0  0  0  0  0  0  0  0  0  0  0  0
   16.9852   -9.2091    0.0000 N   0  0  0  0  0  0  0  0  0  0  0  0
   15.3653  -11.2404    0.0000 N   0  0  0  0  0  0  0  0  0  0  0  0
   11.4571   -5.0456    0.0000 C   0  0  0  0  0  0  0  0  0  0  0  0
   12.3923   -6.2184    0.0000 O   0  0  0  0  0  0  0  0  0  0  0  0
   10.1870   -5.8437    0.0000 N   0  0  0  0  0  0  0  0  0  0  0  0
    8.7712   -6.3391    0.0000 C   0  0  0  0  0  0  0  0  0  0  0  0
    9.1050   -7.8015    0.0000 C   0  0  0  0  0  0  0  0  0  0  0  0
    8.0054   -8.8217    0.0000 C   0  0  0  0  0  0  0  0  0  0  0  0
    8.3392  -10.2841    0.0000 C   0  0  0  0  0  0  0  0  0  0  0  0
    7.2396  -11.3044    0.0000 N   0  0  0  0  0  0  0  0  0  0  0  0
    7.5734  -12.7668    0.0000 C   0  0  0  0  0  0  0  0  0  0  0  0
    8.3693  -12.8104    0.0000 N   0  0  0  0  0  0  0  0  0  0  0  0
    6.7533  -14.0228    0.0000 N   0  0  0  0  0  0  0  0  0  0  0  0
    7.2806   -6.5070    0.0000 C   0  0  0  0  0  0  0  0  0  0  0  0
    7.2806   -8.0070    0.0000 O   0  0  0  0  0  0  0  0  0  0  0  0
    5.7900   -6.3391    0.0000 N   0  0  0  0  0  0  0  0  0  0  0  0
    8.4050   -9.4496    0.0000 C   0  0  0  0  0  0  0  0  0  0  0  0
    9.3635   -8.2958    0.0000 N   0  0  0  0  0  0  0  0  0  0  0  0
    6.9092   -9.5617    0.0000 O   0  0  0  0  0  0  0  0  0  0  0  0
  2  1  1  1
  2  3  1  0
  3  4  1  0
  4  5  2  0
  4  6  1  0
  6  7  1  6
  7  8  1  0
  8  9  2  0
  9 10  1  0
 10 11  2  0
 11 12  1  0
 12 13  2  0
  6 14  1  0
 14 15  1  0
 15 16  2  0
 15 17  1  0
 17 18  1  1
 18 19  1  0
 19 20  1  0
 20 21  1  0
 21 22  1  0
 22 23  2  0
 22 24  1  0
 17 25  1  0
 25 26  1  0
 26 27  2  0
 26 28  1  0
 28 29  1  6
 29 30  1  0
 30 31  1  0
 31 32  1  0
 28 33  1  0
 33 34  1  0
 34 35  2  0
 36 34  1  6
 36 37  1  0
 37 38  1  0
 38 39  1  0
 39 40  2  0
 39 41  1  0
 41 42  2  0
 42 43  1  0
 43 44  2  0
 44 45  1  0
 45 46  2  0
 45 47  1  0
 47 48  2  0
 47 49  1  0
 49 50  1  0
 50 51  1  6
 51 52  1  0
 52 53  2  0
 53 54  1  0
 54 55  2  0
 55 56  1  0
 56 57  2  0
 57 58  1  0
 58 59  2  0
 59 60  1  0
 60 61  2  0
 50 62  1  0
 62 63  2  0
 62 64  1  0
 64 65  1  0
 65 66  1  1
 66 67  1  0
 65 68  1  0
 68 69  2  0
 68 70  1  0
 70 71  1  0
 71 72  1  1
 72 73  1  0
 71 74  1  0
 74 75  2  0
 74 76  1  0
 76 77  1  0
 77 78  1  6
 78 79  1  0
 79 80  2  0
 80 81  1  0
 81 82  2  0
 82 83  1  0
 83 84  2  0
 84 85  1  0
 85 86  2  0
 86 87  1  0
 87 88  2  0
 77 89  1  0
 89 90  2  0
 89 91  1  0
 91 92  1  0
 92 93  1  1
 93 94  2  0
 94 95  1  0
 95 96  2  0
 96 97  1  0
 97 98  2  0
 92 99  1  0
 99100  2  0
 99101  1  0
102101  1  6
102103  1  0
103104  1  0
104105  1  0
105106  1  0
106107  1  0
107108  1  0
108109  2  0
102110  1  0
110111  2  0
110112  1  0
112113  1  0
113114  1  6
114115  1  0
115116  2  0
116117  1  0
117118  2  0
118119  1  0
119120  2  0
113121  1  0
121122  2  0
121123  1  0
123124  1  0
124125  1  6
125126  1  0
126127  1  0
127128  1  0
127129  2  0
124130  1  0
130131  2  0
130132  1  0
132133  1  0
133134  1  6
134135  1  0
135136  1  0
136137  1  0
137138  1  0
138139  2  0
138140  1  0
133141  1  0
141142  2  0
141143  1  0
143144  1  0
144145  1  1
145146  1  0
146147  1  0
147148  1  0
148149  1  0
149150  2  0
149151  1  0
144152  1  0
152153  2  0
152154  1  0
  2155  1  0
155156  1  0
155157  2  0
 13  8  1  0
154 36  1  0
 46 41  1  0
 61 52  1  0
 88 79  1  0
 98 93  1  0
120115  1  0
108 43  1  0
 60 55  1  0
 87 82  1  0
M  END
>  <molecule_chembl_id>  (152) 
CHEMBL4869530

>  <canonical_smiles>  (152) 
C[C@@H](NC(=O)[C@H](Cc1ccccc1)NC(=O)[C@@H](CCCNC(=N)N)NC(=O)[C@H](CCCN)NC(=O)[C@@H]1CNC(=O)c2cc3cc(c2)C(=O)N[C@H](Cc2ccc4ccccc4c2)C(=O)N[C@@H](CO)C(=O)N[C@@H](CO)C(=O)N[C@H](Cc2ccc4ccccc4c2)C(=O)N[C@@H](c2ccccc2)C(=O)N[C@@H](CCCCNC3=O)C(=O)N[C@H](Cc2ccccc2)C(=O)N[C@H](CCC(N)=O)C(=O)N[C@H](CCCNC(=N)N)C(=O)N[C@@H](CCCNC(=N)N)C(=O)N1)C(N)=O

>  <pchembl_value_mean>  (152) 
6.07

>  <inchi>  (152) 
InChI=1S/C107H137N29O21/c1-59(87(110)140)122-97(150)78(49-60-21-5-2-6-22-60)130-94(147)75(34-19-45-119-106(113)114)123-91(144)73(32-17-42-108)126-101(154)82-56-121-89(142)70-53-69-54-71(55-70)90(143)129-80(51-62-36-38-64-25-11-13-29-67(64)47-62)99(152)134-84(58-138)103(156)135-83(57-137)102(155)132-81(52-63-37-39-65-26-12-14-30-68(65)48-63)100(153)136-86(66-27-9-4-10-28-66)104(157)128-72(31-15-16-43-117-88(69)141)93(146)131-79(50-61-23-7-3-8-24-61)98(151)127-77(40-41-85(109)139)96(149)125-74(33-18-44-118-105(111)112)92(145)124-76(95(148)133-82)35-20-46-120-107(115)116/h2-14,21-30,36-39,47-48,53-55,59,72-84,86,137-138H,15-20,31-35,40-46,49-52,56-58,108H2,1H3,(H2,109,139)(H2,110,140)(H,117,141)(H,121,142)(H,122,150)(H,123,144)(H,124,145)(H,125,149)(H,126,154)(H,127,151)(H,128,157)(H,129,143)(H,130,147)(H,131,146)(H,132,155)(H,133,148)(H,134,152)(H,135,156)(H,136,153)(H4,111,112,118)(H4,113,114,119)(H4,115,116,120)/t59-,72+,73+,74-,75-,76+,77-,78+,79-,80-,81-,82+,83+,84+,86+/m1/s1

$$$$

     RDKit          2D

137143  0  0  0  0  0  0  0  0999 V2000
   13.5993   -7.3046    0.0000 C   0  0  0  0  0  0  0  0  0  0  0  0
   13.0513   -5.9083    0.0000 C   0  0  0  0  0  0  0  0  0  0  0  0
   11.5681   -5.6847    0.0000 C   0  0  0  0  0  0  0  0  0  0  0  0
   11.0200   -4.2884    0.0000 C   0  0  0  0  0  0  0  0  0  0  0  0
   11.9553   -3.1157    0.0000 N   0  0  0  0  0  0  0  0  0  0  0  0
   11.4073   -1.7194    0.0000 C   0  0  0  0  0  0  0  0  0  0  0  0
    9.9240   -1.4958    0.0000 C   0  0  0  0  0  0  0  0  0  0  0  0
   10.0361    0.0000    0.0000 N   0  0  0  0  0  0  0  0  0  0  0  0
    9.9240    1.4958    0.0000 C   0  0  0  0  0  0  0  0  0  0  0  0
   11.4073    1.7194    0.0000 O   0  0  0  0  0  0  0  0  0  0  0  0
    9.5902    2.9582    0.0000 C   0  0  0  0  0  0  0  0  0  0  0  0
   11.0236    3.4003    0.0000 C   0  0  0  0  0  0  0  0  0  0  0  0
   12.1232    2.3801    0.0000 C   0  0  0  0  0  0  0  0  0  0  0  0
   13.5565    2.8222    0.0000 C   0  0  0  0  0  0  0  0  0  0  0  0
   14.6561    1.8019    0.0000 N   0  0  0  0  0  0  0  0  0  0  0  0
   16.0895    2.2441    0.0000 C   0  0  0  0  0  0  0  0  0  0  0  0
   16.4233    3.7065    0.0000 N   0  0  0  0  0  0  0  0  0  0  0  0
   17.1891    1.2238    0.0000 N   0  0  0  0  0  0  0  0  0  0  0  0
    9.0422    4.3545    0.0000 N   0  0  0  0  0  0  0  0  0  0  0  0
    8.2922    5.6535    0.0000 C   0  0  0  0  0  0  0  0  0  0  0  0
    9.5316    6.4985    0.0000 O   0  0  0  0  0  0  0  0  0  0  0  0
    7.3570    6.8263    0.0000 C   0  0  0  0  0  0  0  0  0  0  0  0
    8.4566    7.8466    0.0000 C   0  0  0  0  0  0  0  0  0  0  0  0
    9.8899    7.4044    0.0000 C   0  0  0  0  0  0  0  0  0  0  0  0
   10.2237    5.9420    0.0000 C   0  0  0  0  0  0  0  0  0  0  0  0
   11.6571    5.4999    0.0000 C   0  0  0  0  0  0  0  0  0  0  0  0
   12.7567    6.5202    0.0000 C   0  0  0  0  0  0  0  0  0  0  0  0
   12.4229    7.9825    0.0000 C   0  0  0  0  0  0  0  0  0  0  0  0
   10.9895    8.4247    0.0000 C   0  0  0  0  0  0  0  0  0  0  0  0
    6.2574    7.8466    0.0000 N   0  0  0  0  0  0  0  0  0  0  0  0
    5.0181    8.6915    0.0000 C   0  0  0  0  0  0  0  0  0  0  0  0
    5.7681    9.9906    0.0000 O   0  0  0  0  0  0  0  0  0  0  0  0
    3.6666    9.3424    0.0000 C   0  0  0  0  0  0  0  0  0  0  0  0
    4.2146   10.7387    0.0000 C   0  0  0  0  0  0  0  0  0  0  0  0
    3.2794   11.9114    0.0000 C   0  0  0  0  0  0  0  0  0  0  0  0
    1.7961   11.6879    0.0000 N   0  0  0  0  0  0  0  0  0  0  0  0
    3.8274   13.3077    0.0000 O   0  0  0  0  0  0  0  0  0  0  0  0
    2.2332    9.7845    0.0000 N   0  0  0  0  0  0  0  0  0  0  0  0
    0.7500   10.0081    0.0000 C   0  0  0  0  0  0  0  0  0  0  0  0
    0.8621   11.5039    0.0000 O   0  0  0  0  0  0  0  0  0  0  0  0
   -0.7500   10.0081    0.0000 C   0  0  0  0  0  0  0  0  0  0  0  0
   -0.8621   11.5039    0.0000 C   0  0  0  0  0  0  0  0  0  0  0  0
    0.3773   12.3488    0.0000 C   0  0  0  0  0  0  0  0  0  0  0  0
    0.2652   13.8446    0.0000 C   0  0  0  0  0  0  0  0  0  0  0  0
    1.5045   14.6896    0.0000 N   0  0  0  0  0  0  0  0  0  0  0  0
    1.3924   16.1854    0.0000 C   0  0  0  0  0  0  0  0  0  0  0  0
    0.0410   16.8363    0.0000 N   0  0  0  0  0  0  0  0  0  0  0  0
    2.6318   17.0304    0.0000 N   0  0  0  0  0  0  0  0  0  0  0  0
   -2.2332    9.7845    0.0000 N   0  0  0  0  0  0  0  0  0  0  0  0
   -3.6666    9.3424    0.0000 C   0  0  0  0  0  0  0  0  0  0  0  0
   -4.2146   10.7387    0.0000 O   0  0  0  0  0  0  0  0  0  0  0  0
   -5.0181    8.6915    0.0000 C   0  0  0  0  0  0  0  0  0  0  0  0
   -5.7681    9.9906    0.0000 C   0  0  0  0  0  0  0  0  0  0  0  0
   -5.0181   11.2896    0.0000 C   0  0  0  0  0  0  0  0  0  0  0  0
   -3.5181   11.2896    0.0000 C   0  0  0  0  0  0  0  0  0  0  0  0
   -2.7681   12.5886    0.0000 C   0  0  0  0  0  0  0  0  0  0  0  0
   -3.5181   13.8877    0.0000 C   0  0  0  0  0  0  0  0  0  0  0  0
   -5.0181   13.8877    0.0000 C   0  0  0  0  0  0  0  0  0  0  0  0
   -5.7681   12.5886    0.0000 C   0  0  0  0  0  0  0  0  0  0  0  0
   -6.2574    7.8466    0.0000 N   0  0  0  0  0  0  0  0  0  0  0  0
   -7.3570    6.8263    0.0000 C   0  0  0  0  0  0  0  0  0  0  0  0
   -8.4566    7.8466    0.0000 O   0  0  0  0  0  0  0  0  0  0  0  0
   -8.2922    5.6535    0.0000 C   0  0  0  0  0  0  0  0  0  0  0  0
   -9.5316    6.4985    0.0000 C   0  0  0  0  0  0  0  0  0  0  0  0
  -10.8830    5.8477    0.0000 C   0  0  0  0  0  0  0  0  0  0  0  0
  -12.1224    6.6927    0.0000 N   0  0  0  0  0  0  0  0  0  0  0  0
  -10.9951    4.3519    0.0000 O   0  0  0  0  0  0  0  0  0  0  0  0
   -9.0422    4.3545    0.0000 N   0  0  0  0  0  0  0  0  0  0  0  0
   -9.5902    2.9582    0.0000 C   0  0  0  0  0  0  0  0  0  0  0  0
  -11.0236    3.4003    0.0000 O   0  0  0  0  0  0  0  0  0  0  0  0
   -9.9240    1.4958    0.0000 C   0  0  0  0  0  0  0  0  0  0  0  0
  -11.4073    1.7194    0.0000 C   0  0  0  0  0  0  0  0  0  0  0  0
  -11.9553    3.1157    0.0000 C   0  0  0  0  0  0  0  0  0  0  0  0
  -12.3425    0.5466    0.0000 C   0  0  0  0  0  0  0  0  0  0  0  0
  -10.0361    0.0000    0.0000 N   0  0  0  0  0  0  0  0  0  0  0  0
   -9.9240   -1.4958    0.0000 C   0  0  0  0  0  0  0  0  0  0  0  0
  -11.4073   -1.7194    0.0000 O   0  0  0  0  0  0  0  0  0  0  0  0
   -9.5902   -2.9582    0.0000 C   0  0  0  0  0  0  0  0  0  0  0  0
  -11.0236   -3.4003    0.0000 C   0  0  0  0  0  0  0  0  0  0  0  0
  -12.1232   -2.3801    0.0000 C   0  0  0  0  0  0  0  0  0  0  0  0
  -11.7894   -0.9177    0.0000 C   0  0  0  0  0  0  0  0  0  0  0  0
  -12.8890    0.1026    0.0000 C   0  0  0  0  0  0  0  0  0  0  0  0
  -14.3223   -0.3396    0.0000 C   0  0  0  0  0  0  0  0  0  0  0  0
  -14.6561   -1.8019    0.0000 C   0  0  0  0  0  0  0  0  0  0  0  0
  -13.5565   -2.8222    0.0000 C   0  0  0  0  0  0  0  0  0  0  0  0
   -9.0422   -4.3545    0.0000 N   0  0  0  0  0  0  0  0  0  0  0  0
   -8.2922   -5.6535    0.0000 C   0  0  0  0  0  0  0  0  0  0  0  0
   -9.5316   -6.4985    0.0000 O   0  0  0  0  0  0  0  0  0  0  0  0
   -7.3570   -6.8263    0.0000 C   0  0  0  0  0  0  0  0  0  0  0  0
   -8.4566   -7.8466    0.0000 C   0  0  0  0  0  0  0  0  0  0  0  0
   -9.8899   -7.4044    0.0000 C   0  0  0  0  0  0  0  0  0  0  0  0
  -10.2237   -5.9420    0.0000 C   0  0  0  0  0  0  0  0  0  0  0  0
  -11.6571   -5.4999    0.0000 C   0  0  0  0  0  0  0  0  0  0  0  0
  -12.7567   -6.5202    0.0000 C   0  0  0  0  0  0  0  0  0  0  0  0
  -14.1900   -6.0780    0.0000 O   0  0  0  0  0  0  0  0  0  0  0  0
  -12.4229   -7.9825    0.0000 C   0  0  0  0  0  0  0  0  0  0  0  0
  -10.9895   -8.4247    0.0000 C   0  0  0  0  0  0  0  0  0  0  0  0
   -6.2574   -7.8466    0.0000 N   0  0  0  0  0  0  0  0  0  0  0  0
   -5.0181   -8.6915    0.0000 C   0  0  0  0  0  0  0  0  0  0  0  0
   -5.7681   -9.9906    0.0000 O   0  0  0  0  0  0  0  0  0  0  0  0
   -3.6666   -9.3424    0.0000 C   0  0  0  0  0  0  0  0  0  0  0  0
   -2.2332   -9.7845    0.0000 S   0  0  0  0  0  0  0  0  0  0  0  0
   -0.7500  -10.0081    0.0000 C   0  0  0  0  0  0  0  0  0  0  0  0
    0.7500  -10.0081    0.0000 C   0  0  0  0  0  0  0  0  0  0  0  0
    0.8621  -11.5039    0.0000 C   0  0  0  0  0  0  0  0  0  0  0  0
   -0.3773  -12.3488    0.0000 N   0  0  0  0  0  0  0  0  0  0  0  0
   -0.2652  -13.8446    0.0000 C   0  0  0  0  0  0  0  0  0  0  0  0
   -1.5045  -14.6896    0.0000 C   0  0  0  0  0  0  0  0  0  0  0  0
   -1.3924  -16.1854    0.0000 N   0  0  0  0  0  0  0  0  0  0  0  0
   -2.8560  -14.0388    0.0000 O   0  0  0  0  0  0  0  0  0  0  0  0
    2.2332   -9.7845    0.0000 N   0  0  0  0  0  0  0  0  0  0  0  0
    3.6666   -9.3424    0.0000 C   0  0  0  0  0  0  0  0  0  0  0  0
    4.2146  -10.7387    0.0000 O   0  0  0  0  0  0  0  0  0  0  0  0
    5.0181   -8.6915    0.0000 C   0  0  0  0  0  0  0  0  0  0  0  0
    5.7681   -9.9906    0.0000 C   0  0  0  0  0  0  0  0  0  0  0  0
    5.0181  -11.2896    0.0000 C   0  0  0  0  0  0  0  0  0  0  0  0
    5.7681  -12.5886    0.0000 C   0  0  0  0  0  0  0  0  0  0  0  0
    5.0181  -13.8877    0.0000 N   0  0  0  0  0  0  0  0  0  0  0  0
    5.7681  -15.1867    0.0000 C   0  0  0  0  0  0  0  0  0  0  0  0
    7.2681  -15.1867    0.0000 N   0  0  0  0  0  0  0  0  0  0  0  0
    5.0181  -16.4858    0.0000 N   0  0  0  0  0  0  0  0  0  0  0  0
    6.2574   -7.8466    0.0000 N   0  0  0  0  0  0  0  0  0  0  0  0
    7.3570   -6.8263    0.0000 C   0  0  0  0  0  0  0  0  0  0  0  0
    8.4566   -7.8466    0.0000 O   0  0  0  0  0  0  0  0  0  0  0  0
    8.2922   -5.6535    0.0000 C   0  0  0  0  0  0  0  0  0  0  0  0
    9.5316   -6.4985    0.0000 C   0  0  0  0  0  0  0  0  0  0  0  0
    9.4195   -7.9943    0.0000 C   0  0  0  0  0  0  0  0  0  0  0  0
    8.0680   -8.6452    0.0000 C   0  0  0  0  0  0  0  0  0  0  0  0
    7.9559  -10.1410    0.0000 C   0  0  0  0  0  0  0  0  0  0  0  0
    9.1953  -10.9859    0.0000 C   0  0  0  0  0  0  0  0  0  0  0  0
   10.5468  -10.3351    0.0000 C   0  0  0  0  0  0  0  0  0  0  0  0
   10.6589   -8.8393    0.0000 C   0  0  0  0  0  0  0  0  0  0  0  0
    9.0422   -4.3545    0.0000 N   0  0  0  0  0  0  0  0  0  0  0  0
    9.5902   -2.9582    0.0000 C   0  0  0  0  0  0  0  0  0  0  0  0
   11.0236   -3.4003    0.0000 O   0  0  0  0  0  0  0  0  0  0  0  0
   13.4385   -3.3392    0.0000 C   0  0  0  0  0  0  0  0  0  0  0  0
   13.9865   -4.7356    0.0000 C   0  0  0  0  0  0  0  0  0  0  0  0
  1  2  1  0
  2  3  1  0
  3  4  1  0
  4  5  1  0
  5  6  1  0
  7  6  1  1
  7  8  1  0
  8  9  1  0
  9 10  2  0
  9 11  1  0
 11 12  1  1
 12 13  1  0
 13 14  1  0
 14 15  1  0
 15 16  1  0
 16 17  2  0
 16 18  1  0
 11 19  1  0
 19 20  1  0
 20 21  2  0
 20 22  1  0
 22 23  1  1
 23 24  1  0
 24 25  2  0
 25 26  1  0
 26 27  2  0
 27 28  1  0
 28 29  2  0
 22 30  1  0
 30 31  1  0
 31 32  2  0
 31 33  1  0
 33 34  1  1
 34 35  1  0
 35 36  1  0
 35 37  2  0
 33 38  1  0
 38 39  1  0
 39 40  2  0
 39 41  1  0
 41 42  1  1
 42 43  1  0
 43 44  1  0
 44 45  1  0
 45 46  1  0
 46 47  2  0
 46 48  1  0
 41 49  1  0
 49 50  1  0
 50 51  2  0
 50 52  1  0
 52 53  1  1
 53 54  1  0
 54 55  2  0
 55 56  1  0
 56 57  2  0
 57 58  1  0
 58 59  2  0
 52 60  1  0
 60 61  1  0
 61 62  2  0
 61 63  1  0
 63 64  1  1
 64 65  1  0
 65 66  1  0
 65 67  2  0
 63 68  1  0
 68 69  1  0
 69 70  2  0
 69 71  1  0
 71 72  1  1
 72 73  1  0
 72 74  1  0
 71 75  1  0
 75 76  1  0
 76 77  2  0
 76 78  1  0
 78 79  1  1
 79 80  1  0
 80 81  2  0
 81 82  1  0
 82 83  2  0
 83 84  1  0
 84 85  2  0
 78 86  1  0
 86 87  1  0
 87 88  2  0
 87 89  1  0
 89 90  1  1
 90 91  1  0
 91 92  2  0
 92 93  1  0
 93 94  2  0
 94 95  1  0
 94 96  1  0
 96 97  2  0
 89 98  1  0
 98 99  1  0
 99100  2  0
 99101  1  0
101102  1  0
102103  1  0
103104  1  0
104105  1  6
105106  1  0
106107  1  0
107108  1  0
108109  1  0
108110  2  0
104111  1  0
111112  1  0
112113  2  0
112114  1  0
114115  1  1
115116  1  0
116117  1  0
117118  1  0
118119  1  0
119120  2  0
119121  1  0
114122  1  0
122123  1  0
123124  2  0
123125  1  0
125126  1  1
126127  1  0
127128  2  0
128129  1  0
129130  2  0
130131  1  0
131132  2  0
125133  1  0
133134  1  0
134135  2  0
  5136  1  0
136137  1  0
137  2  1  0
134  7  1  0
 29 24  1  0
 59 54  1  0
 85 80  1  0
 97 91  1  0
132127  1  0
M  END
>  <molecule_chembl_id>  (153) 
CHEMBL5201714

>  <canonical_smiles>  (153) 
CC1CCN(C[C@@H]2NC(=O)[C@H](CCCNC(=N)N)NC(=O)[C@H](Cc3ccccc3)NC(=O)[C@H](CC(N)=O)NC(=O)[C@H](CCCNC(=N)N)NC(=O)[C@H](Cc3ccccc3)NC(=O)[C@H](CC(N)=O)NC(=O)[C@H](C(C)C)NC(=O)[C@H](Cc3ccccc3)NC(=O)[C@H](Cc3ccc(O)cc3)NC(=O)CSC[C@@H](CNCC(N)=O)NC(=O)[C@H](CCCNC(=N)N)NC(=O)[C@H](Cc3ccccc3)NC2=O)CC1

>  <pchembl_value_mean>  (153) 
6.1

>  <inchi>  (153) 
InChI=1S/C92H131N27O17S/c1-53(2)77-89(136)116-71(47-74(94)122)86(133)112-67(42-56-21-10-5-11-22-56)82(129)109-63(28-17-37-104-91(98)99)79(126)115-70(46-73(93)121)85(132)111-66(41-55-19-8-4-9-20-55)83(130)110-64(29-18-38-105-92(100)101)80(127)117-72(50-119-39-34-54(3)35-40-119)88(135)114-68(43-57-23-12-6-13-24-57)84(131)108-62(27-16-36-103-90(96)97)78(125)106-60(48-102-49-75(95)123)51-137-52-76(124)107-65(45-59-30-32-61(120)33-31-59)81(128)113-69(87(134)118-77)44-58-25-14-7-15-26-58/h4-15,19-26,30-33,53-54,60,62-72,77,102,120H,16-18,27-29,34-52H2,1-3H3,(H2,93,121)(H2,94,122)(H2,95,123)(H,106,125)(H,107,124)(H,108,131)(H,109,129)(H,110,130)(H,111,132)(H,112,133)(H,113,128)(H,114,135)(H,115,126)(H,116,136)(H,117,127)(H,118,134)(H4,96,97,103)(H4,98,99,104)(H4,100,101,105)/t60-,62+,63+,64+,65+,66+,67+,68+,69+,70+,71+,72+,77+/m1/s1

$$$$

     RDKit          2D

158167  0  0  0  0  0  0  0  0999 V2000
   17.7292   -1.4906    0.0000 C   0  0  0  0  0  0  0  0  0  0  0  0
   16.2292   -1.4906    0.0000 C   0  0  0  0  0  0  0  0  0  0  0  0
   15.4792   -2.7896    0.0000 C   0  0  0  0  0  0  0  0  0  0  0  0
   15.4792   -0.1915    0.0000 C   0  0  0  0  0  0  0  0  0  0  0  0
   13.9792   -0.1915    0.0000 C   0  0  0  0  0  0  0  0  0  0  0  0
   13.8112   -1.6821    0.0000 N   0  0  0  0  0  0  0  0  0  0  0  0
   13.3158   -3.0979    0.0000 C   0  0  0  0  0  0  0  0  0  0  0  0
   14.6672   -3.7487    0.0000 O   0  0  0  0  0  0  0  0  0  0  0  0
   12.5177   -4.3680    0.0000 C   0  0  0  0  0  0  0  0  0  0  0  0
   13.6905   -5.3032    0.0000 C   0  0  0  0  0  0  0  0  0  0  0  0
   13.4669   -6.7865    0.0000 C   0  0  0  0  0  0  0  0  0  0  0  0
   12.0706   -7.3345    0.0000 C   0  0  0  0  0  0  0  0  0  0  0  0
   11.8471   -8.8177    0.0000 C   0  0  0  0  0  0  0  0  0  0  0  0
   13.0198   -9.7530    0.0000 C   0  0  0  0  0  0  0  0  0  0  0  0
   14.4161   -9.2050    0.0000 C   0  0  0  0  0  0  0  0  0  0  0  0
   14.6397   -7.7217    0.0000 C   0  0  0  0  0  0  0  0  0  0  0  0
   11.4571   -5.4287    0.0000 N   0  0  0  0  0  0  0  0  0  0  0  0
   10.1870   -6.2267    0.0000 C   0  0  0  0  0  0  0  0  0  0  0  0
   10.8378   -7.5782    0.0000 O   0  0  0  0  0  0  0  0  0  0  0  0
    8.7712   -6.7221    0.0000 C   0  0  0  0  0  0  0  0  0  0  0  0
    7.2806   -6.8901    0.0000 C   0  0  0  0  0  0  0  0  0  0  0  0
    5.7900   -6.7221    0.0000 C   0  0  0  0  0  0  0  0  0  0  0  0
    4.3742   -6.2267    0.0000 C   0  0  0  0  0  0  0  0  0  0  0  0
    3.1041   -5.4287    0.0000 C   0  0  0  0  0  0  0  0  0  0  0  0
    2.0435   -4.3680    0.0000 N   0  0  0  0  0  0  0  0  0  0  0  0
    1.2454   -3.0979    0.0000 C   0  0  0  0  0  0  0  0  0  0  0  0
   -0.1060   -3.7487    0.0000 O   0  0  0  0  0  0  0  0  0  0  0  0
    0.7500   -1.2990    0.0000 C   0  0  0  0  0  0  0  0  0  0  0  0
    1.5000    0.0000    0.0000 C   0  0  0  0  0  0  0  0  0  0  0  0
    0.7500    1.2990    0.0000 C   0  0  0  0  0  0  0  0  0  0  0  0
   -0.7500    1.2990    0.0000 C   0  0  0  0  0  0  0  0  0  0  0  0
   -1.5000    0.0000    0.0000 C   0  0  0  0  0  0  0  0  0  0  0  0
   -0.7500   -1.2990    0.0000 C   0  0  0  0  0  0  0  0  0  0  0  0
   -2.3002   -1.3623    0.0000 C   0  0  0  0  0  0  0  0  0  0  0  0
   -3.7181    0.3198    0.0000 O   0  0  0  0  0  0  0  0  0  0  0  0
   -3.2158   -2.3372    0.0000 N   0  0  0  0  0  0  0  0  0  0  0  0
   -3.8819   -3.4970    0.0000 C   0  0  0  0  0  0  0  0  0  0  0  0
   -5.9040   -2.6302    0.0000 C   0  0  0  0  0  0  0  0  0  0  0  0
   -6.0815   -1.1408    0.0000 C   0  0  0  0  0  0  0  0  0  0  0  0
   -4.8803   -0.2423    0.0000 C   0  0  0  0  0  0  0  0  0  0  0  0
   -5.0578    1.2471    0.0000 C   0  0  0  0  0  0  0  0  0  0  0  0
   -6.4365    1.8381    0.0000 C   0  0  0  0  0  0  0  0  0  0  0  0
   -6.6140    3.3276    0.0000 C   0  0  0  0  0  0  0  0  0  0  0  0
   -7.9927    3.9186    0.0000 C   0  0  0  0  0  0  0  0  0  0  0  0
   -9.1939    3.0201    0.0000 C   0  0  0  0  0  0  0  0  0  0  0  0
   -9.0163    1.5307    0.0000 C   0  0  0  0  0  0  0  0  0  0  0  0
   -7.6377    0.9397    0.0000 C   0  0  0  0  0  0  0  0  0  0  0  0
   -7.4602   -0.5498    0.0000 C   0  0  0  0  0  0  0  0  0  0  0  0
   -4.2626   -4.7792    0.0000 C   0  0  0  0  0  0  0  0  0  0  0  0
   -6.4300   -4.4021    0.0000 O   0  0  0  0  0  0  0  0  0  0  0  0
   -4.3373   -6.1146    0.0000 N   0  0  0  0  0  0  0  0  0  0  0  0
   -4.1021   -7.4312    0.0000 C   0  0  0  0  0  0  0  0  0  0  0  0
   -6.2082   -8.0669    0.0000 C   0  0  0  0  0  0  0  0  0  0  0  0
   -7.3016   -7.0400    0.0000 O   0  0  0  0  0  0  0  0  0  0  0  0
   -3.5696   -8.6581    0.0000 C   0  0  0  0  0  0  0  0  0  0  0  0
   -5.4723   -9.7624    0.0000 O   0  0  0  0  0  0  0  0  0  0  0  0
   -2.7685   -9.7291    0.0000 N   0  0  0  0  0  0  0  0  0  0  0  0
   -1.7420  -10.5864    0.0000 C   0  0  0  0  0  0  0  0  0  0  0  0
   -2.9467  -12.4273    0.0000 C   0  0  0  0  0  0  0  0  0  0  0  0
   -4.4444  -12.3434    0.0000 C   0  0  0  0  0  0  0  0  0  0  0  0
   -5.2658  -13.5985    0.0000 N   0  0  0  0  0  0  0  0  0  0  0  0
   -5.1206  -11.0045    0.0000 O   0  0  0  0  0  0  0  0  0  0  0  0
   -0.5454  -11.1840    0.0000 C   0  0  0  0  0  0  0  0  0  0  0  0
   -1.2931  -13.2530    0.0000 O   0  0  0  0  0  0  0  0  0  0  0  0
    0.7567  -11.4895    0.0000 N   0  0  0  0  0  0  0  0  0  0  0  0
    2.0942  -11.4864    0.0000 C   0  0  0  0  0  0  0  0  0  0  0  0
    2.3546  -13.6710    0.0000 C   0  0  0  0  0  0  0  0  0  0  0  0
    1.1534  -14.5694    0.0000 C   0  0  0  0  0  0  0  0  0  0  0  0
   -0.2253  -13.9785    0.0000 C   0  0  0  0  0  0  0  0  0  0  0  0
   -1.4264  -14.8769    0.0000 C   0  0  0  0  0  0  0  0  0  0  0  0
   -1.2489  -16.3664    0.0000 C   0  0  0  0  0  0  0  0  0  0  0  0
   -2.4501  -17.2648    0.0000 C   0  0  0  0  0  0  0  0  0  0  0  0
   -2.2725  -18.7543    0.0000 C   0  0  0  0  0  0  0  0  0  0  0  0
   -0.8939  -19.3453    0.0000 C   0  0  0  0  0  0  0  0  0  0  0  0
    0.3073  -18.4468    0.0000 C   0  0  0  0  0  0  0  0  0  0  0  0
    0.1298  -16.9574    0.0000 C   0  0  0  0  0  0  0  0  0  0  0  0
    1.3309  -16.0589    0.0000 C   0  0  0  0  0  0  0  0  0  0  0  0
    3.3949  -11.1751    0.0000 C   0  0  0  0  0  0  0  0  0  0  0  0
    4.1520  -13.2407    0.0000 O   0  0  0  0  0  0  0  0  0  0  0  0
    4.5887  -10.5721    0.0000 N   0  0  0  0  0  0  0  0  0  0  0  0
    5.6114   -9.7101    0.0000 C   0  0  0  0  0  0  0  0  0  0  0  0
    7.2150  -11.2162    0.0000 C   0  0  0  0  0  0  0  0  0  0  0  0
    6.8724  -12.6765    0.0000 C   0  0  0  0  0  0  0  0  0  0  0  0
    7.9658  -13.7034    0.0000 C   0  0  0  0  0  0  0  0  0  0  0  0
    9.4018  -13.2699    0.0000 C   0  0  0  0  0  0  0  0  0  0  0  0
    9.7444  -11.8096    0.0000 C   0  0  0  0  0  0  0  0  0  0  0  0
    8.6510  -10.7827    0.0000 C   0  0  0  0  0  0  0  0  0  0  0  0
    6.4076   -8.6354    0.0000 C   0  0  0  0  0  0  0  0  0  0  0  0
    8.3154   -9.7311    0.0000 O   0  0  0  0  0  0  0  0  0  0  0  0
    8.1358   -8.0625    0.0000 N   0  0  0  0  0  0  0  0  0  0  0  0
    1.2454    2.7149    0.0000 C   0  0  0  0  0  0  0  0  0  0  0  0
    0.0946    3.1047    0.0000 O   0  0  0  0  0  0  0  0  0  0  0  0
    2.0435    3.9849    0.0000 N   0  0  0  0  0  0  0  0  0  0  0  0
    3.1041    5.0456    0.0000 C   0  0  0  0  0  0  0  0  0  0  0  0
    4.3742    5.8437    0.0000 C   0  0  0  0  0  0  0  0  0  0  0  0
    3.7234    7.1951    0.0000 C   0  0  0  0  0  0  0  0  0  0  0  0
    2.2276    7.3072    0.0000 O   0  0  0  0  0  0  0  0  0  0  0  0
    4.5684    8.4345    0.0000 N   0  0  0  0  0  0  0  0  0  0  0  0
    3.9175    9.7859    0.0000 C   0  0  0  0  0  0  0  0  0  0  0  0
    4.7625   11.0253    0.0000 C   0  0  0  0  0  0  0  0  0  0  0  0
    4.1117   12.3767    0.0000 C   0  0  0  0  0  0  0  0  0  0  0  0
    4.9567   13.6161    0.0000 C   0  0  0  0  0  0  0  0  0  0  0  0
    4.3059   14.9675    0.0000 N   0  0  0  0  0  0  0  0  0  0  0  0
    2.4217    9.8980    0.0000 C   0  0  0  0  0  0  0  0  0  0  0  0
    1.5768    8.6587    0.0000 O   0  0  0  0  0  0  0  0  0  0  0  0
    1.7709   11.2495    0.0000 N   0  0  0  0  0  0  0  0  0  0  0  0
    0.2751   11.3616    0.0000 C   0  0  0  0  0  0  0  0  0  0  0  0
   -0.3757   12.7130    0.0000 C   0  0  0  0  0  0  0  0  0  0  0  0
   -1.8715   12.8251    0.0000 C   0  0  0  0  0  0  0  0  0  0  0  0
   -2.5224   14.1766    0.0000 C   0  0  0  0  0  0  0  0  0  0  0  0
   -4.0182   14.2887    0.0000 N   0  0  0  0  0  0  0  0  0  0  0  0
   -4.6690   15.6401    0.0000 C   0  0  0  0  0  0  0  0  0  0  0  0
   -3.8240   16.8795    0.0000 N   0  0  0  0  0  0  0  0  0  0  0  0
   -6.1648   15.7522    0.0000 N   0  0  0  0  0  0  0  0  0  0  0  0
   -0.5699   10.1222    0.0000 C   0  0  0  0  0  0  0  0  0  0  0  0
    0.0810    8.7708    0.0000 O   0  0  0  0  0  0  0  0  0  0  0  0
   -2.0657   10.2343    0.0000 N   0  0  0  0  0  0  0  0  0  0  0  0
   -2.9107    8.9949    0.0000 C   0  0  0  0  0  0  0  0  0  0  0  0
   -4.4065    9.1070    0.0000 C   0  0  0  0  0  0  0  0  0  0  0  0
   -5.2514    7.8677    0.0000 C   0  0  0  0  0  0  0  0  0  0  0  0
   -6.7473    7.9798    0.0000 C   0  0  0  0  0  0  0  0  0  0  0  0
   -7.5922    6.7404    0.0000 C   0  0  0  0  0  0  0  0  0  0  0  0
   -6.9414    5.3890    0.0000 C   0  0  0  0  0  0  0  0  0  0  0  0
   -5.4456    5.2769    0.0000 C   0  0  0  0  0  0  0  0  0  0  0  0
   -4.6006    6.5162    0.0000 C   0  0  0  0  0  0  0  0  0  0  0  0
   -2.2598    7.6435    0.0000 C   0  0  0  0  0  0  0  0  0  0  0  0
   -0.7640    7.5314    0.0000 O   0  0  0  0  0  0  0  0  0  0  0  0
   -3.1048    6.4041    0.0000 N   0  0  0  0  0  0  0  0  0  0  0  0
   -2.4540    5.0527    0.0000 C   0  0  0  0  0  0  0  0  0  0  0  0
   -3.2990    3.8133    0.0000 C   0  0  0  0  0  0  0  0  0  0  0  0
   -0.9582    4.9406    0.0000 C   0  0  0  0  0  0  0  0  0  0  0  0
   -0.1132    6.1799    0.0000 N   0  0  0  0  0  0  0  0  0  0  0  0
   -0.5684    3.7898    0.0000 O   0  0  0  0  0  0  0  0  0  0  0  0
    5.7900    6.3391    0.0000 N   0  0  0  0  0  0  0  0  0  0  0  0
    7.2806    6.5070    0.0000 C   0  0  0  0  0  0  0  0  0  0  0  0
    7.2806    8.0070    0.0000 O   0  0  0  0  0  0  0  0  0  0  0  0
    8.7712    6.3391    0.0000 C   0  0  0  0  0  0  0  0  0  0  0  0
    9.1050    7.8015    0.0000 C   0  0  0  0  0  0  0  0  0  0  0  0
   10.5383    8.2436    0.0000 C   0  0  0  0  0  0  0  0  0  0  0  0
   10.8721    9.7060    0.0000 C   0  0  0  0  0  0  0  0  0  0  0  0
   12.3055   10.1481    0.0000 N   0  0  0  0  0  0  0  0  0  0  0  0
   12.6392   11.6105    0.0000 C   0  0  0  0  0  0  0  0  0  0  0  0
   11.5397   12.6308    0.0000 N   0  0  0  0  0  0  0  0  0  0  0  0
   14.0726   12.0527    0.0000 N   0  0  0  0  0  0  0  0  0  0  0  0
   10.1870    5.8437    0.0000 N   0  0  0  0  0  0  0  0  0  0  0  0
   11.4571    5.0456    0.0000 C   0  0  0  0  0  0  0  0  0  0  0  0
   12.3923    6.2184    0.0000 O   0  0  0  0  0  0  0  0  0  0  0  0
   12.5177    3.9849    0.0000 C   0  0  0  0  0  0  0  0  0  0  0  0
   13.6905    4.9202    0.0000 C   0  0  0  0  0  0  0  0  0  0  0  0
   15.0868    4.3722    0.0000 C   0  0  0  0  0  0  0  0  0  0  0  0
   16.2596    5.3074    0.0000 C   0  0  0  0  0  0  0  0  0  0  0  0
   17.6559    4.7594    0.0000 N   0  0  0  0  0  0  0  0  0  0  0  0
   18.8286    5.6946    0.0000 C   0  0  0  0  0  0  0  0  0  0  0  0
   18.6050    7.1779    0.0000 N   0  0  0  0  0  0  0  0  0  0  0  0
   20.2249    5.1466    0.0000 N   0  0  0  0  0  0  0  0  0  0  0  0
   13.3158    2.7149    0.0000 N   0  0  0  0  0  0  0  0  0  0  0  0
   13.8112    1.2990    0.0000 C   0  0  0  0  0  0  0  0  0  0  0  0
   15.2736    1.6328    0.0000 O   0  0  0  0  0  0  0  0  0  0  0  0
  1  2  1  0
  2  3  1  0
  2  4  1  0
  5  4  1  1
  5  6  1  0
  6  7  1  0
  7  8  2  0
  7  9  1  0
  9 10  1  1
 10 11  1  0
 11 12  2  0
 12 13  1  0
 13 14  2  0
 14 15  1  0
 15 16  2  0
  9 17  1  0
 17 18  1  0
 18 19  2  0
 18 20  1  0
 20 21  1  0
 21 22  1  0
 22 23  1  0
 23 24  1  0
 24 25  1  0
 25 26  1  0
 26 27  2  0
 26 28  1  0
 28 29  1  0
 29 30  2  0
 30 31  1  0
 31 32  2  0
 32 33  1  0
 32 34  1  0
 34 35  2  0
 34 36  1  0
 36 37  1  0
 37 38  1  1
 38 39  1  0
 39 40  2  0
 40 41  1  0
 41 42  2  0
 42 43  1  0
 43 44  2  0
 44 45  1  0
 45 46  2  0
 46 47  1  0
 47 48  2  0
 37 49  1  0
 49 50  2  0
 49 51  1  0
 51 52  1  0
 52 53  1  6
 53 54  1  0
 52 55  1  0
 55 56  2  0
 55 57  1  0
 57 58  1  0
 58 59  1  6
 59 60  1  0
 60 61  1  0
 60 62  2  0
 58 63  1  0
 63 64  2  0
 63 65  1  0
 65 66  1  0
 66 67  1  1
 67 68  1  0
 68 69  2  0
 69 70  1  0
 70 71  2  0
 71 72  1  0
 72 73  2  0
 73 74  1  0
 74 75  2  0
 75 76  1  0
 76 77  2  0
 66 78  1  0
 78 79  2  0
 78 80  1  0
 80 81  1  0
 81 82  1  6
 82 83  2  0
 83 84  1  0
 84 85  2  0
 85 86  1  0
 86 87  2  0
 81 88  1  0
 88 89  2  0
 88 90  1  0
 30 91  1  0
 91 92  2  0
 91 93  1  0
 93 94  1  0
 94 95  1  0
 95 96  1  1
 96 97  2  0
 96 98  1  0
 98 99  1  0
 99100  1  6
100101  1  0
101102  1  0
102103  1  0
 99104  1  0
104105  2  0
104106  1  0
106107  1  0
107108  1  1
108109  1  0
109110  1  0
110111  1  0
111112  1  0
112113  2  0
112114  1  0
107115  1  0
115116  2  0
115117  1  0
117118  1  0
118119  1  6
119120  1  0
120121  2  0
121122  1  0
122123  2  0
123124  1  0
124125  2  0
118126  1  0
126127  2  0
126128  1  0
128129  1  0
129130  1  1
129131  1  0
131132  1  0
131133  2  0
 95134  1  0
134135  1  0
135136  2  0
135137  1  0
137138  1  6
138139  1  0
139140  1  0
140141  1  0
141142  1  0
142143  2  0
142144  1  0
137145  1  0
145146  1  0
146147  2  0
146148  1  0
148149  1  1
149150  1  0
150151  1  0
151152  1  0
152153  1  0
153154  2  0
153155  1  0
148156  1  0
156157  1  0
157158  2  0
157  5  1  0
 16 11  1  0
 20 90  1  1
125120  1  0
 33 28  2  0
 48 39  1  0
 77 68  1  0
 87 82  1  0
 47 42  1  0
 76 71  1  0
M  END
>  <molecule_chembl_id>  (154) 
CHEMBL4862082

>  <canonical_smiles>  (154) 
CC(C)C[C@H]1NC(=O)[C@@H](Cc2ccccc2)NC(=O)[C@@H]2CCCCNC(=O)c3cc(cc(c3)C(=O)N[C@H](Cc3ccc4ccccc4c3)C(=O)N[C@@H](CO)C(=O)N[C@@H](CC(N)=O)C(=O)N[C@H](Cc3ccc4ccccc4c3)C(=O)N[C@@H](c3ccccc3)C(=O)N2)C(=O)NC[C@@H](C(=O)N[C@@H](CCCN)C(=O)N[C@H](CCCNC(=N)N)C(=O)N[C@@H](Cc2ccccc2)C(=O)N[C@H](C)C(N)=O)NC(=O)[C@H](CCCNC(=N)N)NC(=O)[C@@H](CCCNC(=N)N)NC1=O

>  <pchembl_value_mean>  (154) 
6.1

>  <inchi>  (154) 
InChI=1S/C109H141N29O20/c1-60(2)47-79-99(151)127-76(35-20-44-120-107(113)114)94(146)126-78(37-22-46-122-109(117)118)97(149)136-85(104(156)128-75(34-19-42-110)93(145)125-77(36-21-45-121-108(115)116)96(148)132-80(50-62-23-7-4-8-24-62)98(150)124-61(3)89(112)141)58-123-91(143)72-54-71-55-73(56-72)92(144)130-82(52-64-38-40-66-27-13-15-31-69(66)48-64)101(153)137-86(59-139)105(157)135-84(57-87(111)140)102(154)134-83(53-65-39-41-67-28-14-16-32-70(67)49-65)103(155)138-88(68-29-11-6-12-30-68)106(158)129-74(33-17-18-43-119-90(71)142)95(147)133-81(100(152)131-79)51-63-25-9-5-10-26-63/h4-16,23-32,38-41,48-49,54-56,60-61,74-86,88,139H,17-22,33-37,42-47,50-53,57-59,110H2,1-3H3,(H2,111,140)(H2,112,141)(H,119,142)(H,123,143)(H,124,150)(H,125,145)(H,126,146)(H,127,151)(H,128,156)(H,129,158)(H,130,144)(H,131,152)(H,132,148)(H,133,147)(H,134,154)(H,135,157)(H,136,149)(H,137,153)(H,138,155)(H4,113,114,120)(H4,115,116,121)(H4,117,118,122)/t61-,74+,75+,76-,77-,78+,79-,80+,81-,82-,83-,84+,85+,86+,88+/m1/s1

$$$$

     RDKit          2D

 44 50  0  0  0  0  0  0  0  0999 V2000
    4.8107  -10.9304    0.0000 C   0  0  0  0  0  0  0  0  0  0  0  0
    4.0607   -9.6313    0.0000 C   0  0  0  0  0  0  0  0  0  0  0  0
    4.8107   -8.3323    0.0000 C   0  0  0  0  0  0  0  0  0  0  0  0
    6.3107   -8.3323    0.0000 O   0  0  0  0  0  0  0  0  0  0  0  0
    4.0607   -7.0333    0.0000 N   0  0  0  0  0  0  0  0  0  0  0  0
    2.6118   -6.6450    0.0000 C   0  0  0  0  0  0  0  0  0  0  0  0
    3.0000   -5.1962    0.0000 C   0  0  0  0  0  0  0  0  0  0  0  0
    3.7500   -3.8971    0.0000 C   0  0  0  0  0  0  0  0  0  0  0  0
    3.0000   -2.5981    0.0000 C   0  0  0  0  0  0  0  0  0  0  0  0
    1.5000   -2.5981    0.0000 N   0  0  0  0  0  0  0  0  0  0  0  0
    0.7500   -1.2990    0.0000 C   0  0  0  0  0  0  0  0  0  0  0  0
    1.5000    0.0000    0.0000 N   0  0  0  0  0  0  0  0  0  0  0  0
    0.7500    1.2990    0.0000 C   0  0  0  0  0  0  0  0  0  0  0  0
    1.5000    2.5981    0.0000 O   0  0  0  0  0  0  0  0  0  0  0  0
    3.0000    2.5981    0.0000 C   0  0  0  0  0  0  0  0  0  0  0  0
    3.0000    1.0981    0.0000 C   0  0  0  0  0  0  0  0  0  0  0  0
    4.2990    0.3481    0.0000 N   0  0  0  0  0  0  0  0  0  0  0  0
    4.2990   -1.1519    0.0000 C   0  0  0  0  0  0  0  0  0  0  0  0
    5.5981    1.0981    0.0000 C   0  0  0  0  0  0  0  0  0  0  0  0
    3.0000    4.0981    0.0000 C   0  0  0  0  0  0  0  0  0  0  0  0
    4.5000    4.0981    0.0000 C   0  0  0  0  0  0  0  0  0  0  0  0
    4.5000    2.5981    0.0000 C   0  0  0  0  0  0  0  0  0  0  0  0
   -0.7500    1.2990    0.0000 N   0  0  0  0  0  0  0  0  0  0  0  0
   -1.5000    0.0000    0.0000 C   0  0  0  0  0  0  0  0  0  0  0  0
   -3.0000    0.0000    0.0000 C   0  0  0  0  0  0  0  0  0  0  0  0
   -3.7500    1.2990    0.0000 F   0  0  0  0  0  0  0  0  0  0  0  0
   -3.7500   -1.2990    0.0000 C   0  0  0  0  0  0  0  0  0  0  0  0
   -5.2500   -1.2990    0.0000 C   0  0  0  0  0  0  0  0  0  0  0  0
   -6.0000    0.0000    0.0000 C   0  0  0  0  0  0  0  0  0  0  0  0
   -5.2500    1.2990    0.0000 C   0  0  0  0  0  0  0  0  0  0  0  0
   -7.5000    0.0000    0.0000 C   0  0  0  0  0  0  0  0  0  0  0  0
   -8.2500   -1.2990    0.0000 C   0  0  0  0  0  0  0  0  0  0  0  0
   -7.5000   -2.5981    0.0000 C   0  0  0  0  0  0  0  0  0  0  0  0
   -7.9635   -4.0247    0.0000 N   0  0  0  0  0  0  0  0  0  0  0  0
   -6.7500   -4.9063    0.0000 N   0  0  0  0  0  0  0  0  0  0  0  0
   -5.5365   -4.0247    0.0000 C   0  0  0  0  0  0  0  0  0  0  0  0
   -6.0000   -2.5981    0.0000 C   0  0  0  0  0  0  0  0  0  0  0  0
   -3.0000   -2.5981    0.0000 C   0  0  0  0  0  0  0  0  0  0  0  0
   -3.7500   -3.8971    0.0000 Cl  0  0  0  0  0  0  0  0  0  0  0  0
   -1.5000   -2.5981    0.0000 C   0  0  0  0  0  0  0  0  0  0  0  0
   -0.7500   -1.2990    0.0000 C   0  0  0  0  0  0  0  0  0  0  0  0
    0.7500   -3.8971    0.0000 C   0  0  0  0  0  0  0  0  0  0  0  0
    1.5000   -5.1962    0.0000 C   0  0  0  0  0  0  0  0  0  0  0  0
    4.4489   -5.5844    0.0000 C   0  0  0  0  0  0  0  0  0  0  0  0
  1  2  2  0
  2  3  1  0
  3  4  2  0
  3  5  1  0
  5  6  1  0
  6  7  1  0
  7  8  1  0
  8  9  1  0
  9 10  1  0
 10 11  1  0
 11 12  2  0
 12 13  1  0
 13 14  1  0
 14 15  1  0
 15 16  1  0
 16 17  1  0
 17 18  1  0
 17 19  1  0
 15 20  1  0
 20 21  1  0
 21 22  1  0
 13 23  2  0
 23 24  1  0
 24 25  2  0
 25 26  1  0
 25 27  1  0
 27 28  1  0
 28 29  2  0
 29 30  1  0
 29 31  1  0
 31 32  2  0
 32 33  1  0
 33 34  1  0
 34 35  1  0
 35 36  2  0
 36 37  1  0
 27 38  2  0
 38 39  1  0
 38 40  1  0
 40 41  2  0
 10 42  1  0
 42 43  1  0
  7 44  1  0
 44  5  1  0
 43  7  1  0
 41 11  1  0
 22 15  1  0
 41 24  1  0
 37 28  1  0
 37 33  2  0
M  END
>  <molecule_chembl_id>  (155) 
CHEMBL5196761

>  <canonical_smiles>  (155) 
C=CC(=O)N1CC2(CCN(c3nc(OC4(CN(C)C)CCC4)nc4c(F)c(-c5c(C)ccc6[nH]ncc56)c(Cl)cc34)CC2)C1

>  <pchembl_value_mean>  (155) 
6.11

>  <inchi>  (155) 
InChI=1S/C33H37ClFN7O2/c1-5-25(43)42-17-32(18-42)11-13-41(14-12-32)30-21-15-23(34)27(26-20(2)7-8-24-22(26)16-36-39-24)28(35)29(21)37-31(38-30)44-33(9-6-10-33)19-40(3)4/h5,7-8,15-16H,1,6,9-14,17-19H2,2-4H3,(H,36,39)

$$$$

     RDKit          2D

156165  0  0  0  0  0  0  0  0999 V2000
   15.4792   -0.1915    0.0000 C   0  0  0  0  0  0  0  0  0  0  0  0
   13.9792   -0.1915    0.0000 C   0  0  0  0  0  0  0  0  0  0  0  0
   13.8112   -1.6821    0.0000 N   0  0  0  0  0  0  0  0  0  0  0  0
   13.3158   -3.0979    0.0000 C   0  0  0  0  0  0  0  0  0  0  0  0
   14.6672   -3.7487    0.0000 O   0  0  0  0  0  0  0  0  0  0  0  0
   12.5177   -4.3680    0.0000 C   0  0  0  0  0  0  0  0  0  0  0  0
   13.6905   -5.3032    0.0000 C   0  0  0  0  0  0  0  0  0  0  0  0
   13.4669   -6.7865    0.0000 C   0  0  0  0  0  0  0  0  0  0  0  0
   12.0706   -7.3345    0.0000 C   0  0  0  0  0  0  0  0  0  0  0  0
   11.8471   -8.8177    0.0000 C   0  0  0  0  0  0  0  0  0  0  0  0
   13.0198   -9.7530    0.0000 C   0  0  0  0  0  0  0  0  0  0  0  0
   14.4161   -9.2050    0.0000 C   0  0  0  0  0  0  0  0  0  0  0  0
   14.6397   -7.7217    0.0000 C   0  0  0  0  0  0  0  0  0  0  0  0
   11.4571   -5.4287    0.0000 N   0  0  0  0  0  0  0  0  0  0  0  0
   10.1870   -6.2267    0.0000 C   0  0  0  0  0  0  0  0  0  0  0  0
   10.8378   -7.5782    0.0000 O   0  0  0  0  0  0  0  0  0  0  0  0
    8.7712   -6.7221    0.0000 C   0  0  0  0  0  0  0  0  0  0  0  0
    7.2806   -6.8901    0.0000 C   0  0  0  0  0  0  0  0  0  0  0  0
    5.7900   -6.7221    0.0000 C   0  0  0  0  0  0  0  0  0  0  0  0
    4.3742   -6.2267    0.0000 C   0  0  0  0  0  0  0  0  0  0  0  0
    3.1041   -5.4287    0.0000 C   0  0  0  0  0  0  0  0  0  0  0  0
    2.0435   -4.3680    0.0000 N   0  0  0  0  0  0  0  0  0  0  0  0
    1.2454   -3.0979    0.0000 C   0  0  0  0  0  0  0  0  0  0  0  0
   -0.1060   -3.7487    0.0000 O   0  0  0  0  0  0  0  0  0  0  0  0
    0.7500   -1.2990    0.0000 C   0  0  0  0  0  0  0  0  0  0  0  0
    1.5000    0.0000    0.0000 C   0  0  0  0  0  0  0  0  0  0  0  0
    0.7500    1.2990    0.0000 C   0  0  0  0  0  0  0  0  0  0  0  0
   -0.7500    1.2990    0.0000 C   0  0  0  0  0  0  0  0  0  0  0  0
   -1.5000    0.0000    0.0000 C   0  0  0  0  0  0  0  0  0  0  0  0
   -0.7500   -1.2990    0.0000 C   0  0  0  0  0  0  0  0  0  0  0  0
   -2.3002   -1.3623    0.0000 C   0  0  0  0  0  0  0  0  0  0  0  0
   -3.7181    0.3198    0.0000 O   0  0  0  0  0  0  0  0  0  0  0  0
   -3.2158   -2.3372    0.0000 N   0  0  0  0  0  0  0  0  0  0  0  0
   -3.8819   -3.4970    0.0000 C   0  0  0  0  0  0  0  0  0  0  0  0
   -5.9040   -2.6302    0.0000 C   0  0  0  0  0  0  0  0  0  0  0  0
   -6.0815   -1.1408    0.0000 C   0  0  0  0  0  0  0  0  0  0  0  0
   -4.8803   -0.2423    0.0000 C   0  0  0  0  0  0  0  0  0  0  0  0
   -5.0578    1.2471    0.0000 C   0  0  0  0  0  0  0  0  0  0  0  0
   -6.4365    1.8381    0.0000 C   0  0  0  0  0  0  0  0  0  0  0  0
   -6.6140    3.3276    0.0000 C   0  0  0  0  0  0  0  0  0  0  0  0
   -7.9927    3.9186    0.0000 C   0  0  0  0  0  0  0  0  0  0  0  0
   -9.1939    3.0201    0.0000 C   0  0  0  0  0  0  0  0  0  0  0  0
   -9.0163    1.5307    0.0000 C   0  0  0  0  0  0  0  0  0  0  0  0
   -7.6377    0.9397    0.0000 C   0  0  0  0  0  0  0  0  0  0  0  0
   -7.4602   -0.5498    0.0000 C   0  0  0  0  0  0  0  0  0  0  0  0
   -4.2626   -4.7792    0.0000 C   0  0  0  0  0  0  0  0  0  0  0  0
   -6.4300   -4.4021    0.0000 O   0  0  0  0  0  0  0  0  0  0  0  0
   -4.3373   -6.1146    0.0000 N   0  0  0  0  0  0  0  0  0  0  0  0
   -4.1021   -7.4312    0.0000 C   0  0  0  0  0  0  0  0  0  0  0  0
   -6.2082   -8.0669    0.0000 C   0  0  0  0  0  0  0  0  0  0  0  0
   -7.3016   -7.0400    0.0000 O   0  0  0  0  0  0  0  0  0  0  0  0
   -3.5696   -8.6581    0.0000 C   0  0  0  0  0  0  0  0  0  0  0  0
   -5.4723   -9.7624    0.0000 O   0  0  0  0  0  0  0  0  0  0  0  0
   -2.7685   -9.7291    0.0000 N   0  0  0  0  0  0  0  0  0  0  0  0
   -1.7420  -10.5864    0.0000 C   0  0  0  0  0  0  0  0  0  0  0  0
   -2.9467  -12.4273    0.0000 C   0  0  0  0  0  0  0  0  0  0  0  0
   -4.4444  -12.3434    0.0000 C   0  0  0  0  0  0  0  0  0  0  0  0
   -5.2658  -13.5985    0.0000 N   0  0  0  0  0  0  0  0  0  0  0  0
   -5.1206  -11.0045    0.0000 O   0  0  0  0  0  0  0  0  0  0  0  0
   -0.5454  -11.1840    0.0000 C   0  0  0  0  0  0  0  0  0  0  0  0
   -1.2931  -13.2530    0.0000 O   0  0  0  0  0  0  0  0  0  0  0  0
    0.7567  -11.4895    0.0000 N   0  0  0  0  0  0  0  0  0  0  0  0
    2.0942  -11.4864    0.0000 C   0  0  0  0  0  0  0  0  0  0  0  0
    2.3546  -13.6710    0.0000 C   0  0  0  0  0  0  0  0  0  0  0  0
    1.1534  -14.5694    0.0000 C   0  0  0  0  0  0  0  0  0  0  0  0
   -0.2253  -13.9785    0.0000 C   0  0  0  0  0  0  0  0  0  0  0  0
   -1.4264  -14.8769    0.0000 C   0  0  0  0  0  0  0  0  0  0  0  0
   -1.2489  -16.3664    0.0000 C   0  0  0  0  0  0  0  0  0  0  0  0
   -2.4501  -17.2648    0.0000 C   0  0  0  0  0  0  0  0  0  0  0  0
   -2.2725  -18.7543    0.0000 C   0  0  0  0  0  0  0  0  0  0  0  0
   -0.8939  -19.3453    0.0000 C   0  0  0  0  0  0  0  0  0  0  0  0
    0.3073  -18.4468    0.0000 C   0  0  0  0  0  0  0  0  0  0  0  0
    0.1298  -16.9574    0.0000 C   0  0  0  0  0  0  0  0  0  0  0  0
    1.3309  -16.0589    0.0000 C   0  0  0  0  0  0  0  0  0  0  0  0
    3.3949  -11.1751    0.0000 C   0  0  0  0  0  0  0  0  0  0  0  0
    4.1520  -13.2407    0.0000 O   0  0  0  0  0  0  0  0  0  0  0  0
    4.5887  -10.5721    0.0000 N   0  0  0  0  0  0  0  0  0  0  0  0
    5.6114   -9.7101    0.0000 C   0  0  0  0  0  0  0  0  0  0  0  0
    7.2150  -11.2162    0.0000 C   0  0  0  0  0  0  0  0  0  0  0  0
    6.8724  -12.6765    0.0000 C   0  0  0  0  0  0  0  0  0  0  0  0
    7.9658  -13.7034    0.0000 C   0  0  0  0  0  0  0  0  0  0  0  0
    9.4018  -13.2699    0.0000 C   0  0  0  0  0  0  0  0  0  0  0  0
    9.7444  -11.8096    0.0000 C   0  0  0  0  0  0  0  0  0  0  0  0
    8.6510  -10.7827    0.0000 C   0  0  0  0  0  0  0  0  0  0  0  0
    6.4076   -8.6354    0.0000 C   0  0  0  0  0  0  0  0  0  0  0  0
    8.3154   -9.7311    0.0000 O   0  0  0  0  0  0  0  0  0  0  0  0
    8.1358   -8.0625    0.0000 N   0  0  0  0  0  0  0  0  0  0  0  0
    1.2454    2.7149    0.0000 C   0  0  0  0  0  0  0  0  0  0  0  0
    0.0946    3.1047    0.0000 O   0  0  0  0  0  0  0  0  0  0  0  0
    2.0435    3.9849    0.0000 N   0  0  0  0  0  0  0  0  0  0  0  0
    3.1041    5.0456    0.0000 C   0  0  0  0  0  0  0  0  0  0  0  0
    4.3742    5.8437    0.0000 C   0  0  0  0  0  0  0  0  0  0  0  0
    3.7234    7.1951    0.0000 C   0  0  0  0  0  0  0  0  0  0  0  0
    2.2276    7.3072    0.0000 O   0  0  0  0  0  0  0  0  0  0  0  0
    4.5684    8.4345    0.0000 N   0  0  0  0  0  0  0  0  0  0  0  0
    3.9175    9.7859    0.0000 C   0  0  0  0  0  0  0  0  0  0  0  0
    4.7625   11.0253    0.0000 C   0  0  0  0  0  0  0  0  0  0  0  0
    4.1117   12.3767    0.0000 C   0  0  0  0  0  0  0  0  0  0  0  0
    4.9567   13.6161    0.0000 C   0  0  0  0  0  0  0  0  0  0  0  0
    4.3059   14.9675    0.0000 N   0  0  0  0  0  0  0  0  0  0  0  0
    2.4217    9.8980    0.0000 C   0  0  0  0  0  0  0  0  0  0  0  0
    1.5768    8.6587    0.0000 O   0  0  0  0  0  0  0  0  0  0  0  0
    1.7709   11.2495    0.0000 N   0  0  0  0  0  0  0  0  0  0  0  0
    0.2751   11.3616    0.0000 C   0  0  0  0  0  0  0  0  0  0  0  0
   -0.3757   12.7130    0.0000 C   0  0  0  0  0  0  0  0  0  0  0  0
   -1.8715   12.8251    0.0000 C   0  0  0  0  0  0  0  0  0  0  0  0
   -2.5224   14.1766    0.0000 C   0  0  0  0  0  0  0  0  0  0  0  0
   -4.0182   14.2887    0.0000 N   0  0  0  0  0  0  0  0  0  0  0  0
   -4.6690   15.6401    0.0000 C   0  0  0  0  0  0  0  0  0  0  0  0
   -3.8240   16.8795    0.0000 N   0  0  0  0  0  0  0  0  0  0  0  0
   -6.1648   15.7522    0.0000 N   0  0  0  0  0  0  0  0  0  0  0  0
   -0.5699   10.1222    0.0000 C   0  0  0  0  0  0  0  0  0  0  0  0
    0.0810    8.7708    0.0000 O   0  0  0  0  0  0  0  0  0  0  0  0
   -2.0657   10.2343    0.0000 N   0  0  0  0  0  0  0  0  0  0  0  0
   -2.9107    8.9949    0.0000 C   0  0  0  0  0  0  0  0  0  0  0  0
   -4.4065    9.1070    0.0000 C   0  0  0  0  0  0  0  0  0  0  0  0
   -5.2514    7.8677    0.0000 C   0  0  0  0  0  0  0  0  0  0  0  0
   -6.7473    7.9798    0.0000 C   0  0  0  0  0  0  0  0  0  0  0  0
   -7.3981    9.3312    0.0000 C   0  0  0  0  0  0  0  0  0  0  0  0
   -8.8939    9.4433    0.0000 C   0  0  0  0  0  0  0  0  0  0  0  0
   -9.7389    8.2040    0.0000 C   0  0  0  0  0  0  0  0  0  0  0  0
   -9.0880    6.8525    0.0000 C   0  0  0  0  0  0  0  0  0  0  0  0
   -7.5922    6.7404    0.0000 C   0  0  0  0  0  0  0  0  0  0  0  0
   -2.2598    7.6435    0.0000 C   0  0  0  0  0  0  0  0  0  0  0  0
   -0.7640    7.5314    0.0000 O   0  0  0  0  0  0  0  0  0  0  0  0
   -3.1048    6.4041    0.0000 N   0  0  0  0  0  0  0  0  0  0  0  0
   -2.4540    5.0527    0.0000 C   0  0  0  0  0  0  0  0  0  0  0  0
   -3.2990    3.8133    0.0000 C   0  0  0  0  0  0  0  0  0  0  0  0
   -0.9582    4.9406    0.0000 C   0  0  0  0  0  0  0  0  0  0  0  0
   -0.1132    6.1799    0.0000 N   0  0  0  0  0  0  0  0  0  0  0  0
   -0.5684    3.7898    0.0000 O   0  0  0  0  0  0  0  0  0  0  0  0
    5.7900    6.3391    0.0000 N   0  0  0  0  0  0  0  0  0  0  0  0
    7.2806    6.5070    0.0000 C   0  0  0  0  0  0  0  0  0  0  0  0
    7.2806    8.0070    0.0000 O   0  0  0  0  0  0  0  0  0  0  0  0
    8.7712    6.3391    0.0000 C   0  0  0  0  0  0  0  0  0  0  0  0
    9.1050    7.8015    0.0000 C   0  0  0  0  0  0  0  0  0  0  0  0
   10.5383    8.2436    0.0000 C   0  0  0  0  0  0  0  0  0  0  0  0
   10.8721    9.7060    0.0000 C   0  0  0  0  0  0  0  0  0  0  0  0
   12.3055   10.1481    0.0000 N   0  0  0  0  0  0  0  0  0  0  0  0
   12.6392   11.6105    0.0000 C   0  0  0  0  0  0  0  0  0  0  0  0
   11.5397   12.6308    0.0000 N   0  0  0  0  0  0  0  0  0  0  0  0
   14.0726   12.0527    0.0000 N   0  0  0  0  0  0  0  0  0  0  0  0
   10.1870    5.8437    0.0000 N   0  0  0  0  0  0  0  0  0  0  0  0
   11.4571    5.0456    0.0000 C   0  0  0  0  0  0  0  0  0  0  0  0
   12.3923    6.2184    0.0000 O   0  0  0  0  0  0  0  0  0  0  0  0
   12.5177    3.9849    0.0000 C   0  0  0  0  0  0  0  0  0  0  0  0
   13.6905    4.9202    0.0000 C   0  0  0  0  0  0  0  0  0  0  0  0
   15.0868    4.3722    0.0000 C   0  0  0  0  0  0  0  0  0  0  0  0
   16.2596    5.3074    0.0000 C   0  0  0  0  0  0  0  0  0  0  0  0
   17.6559    4.7594    0.0000 N   0  0  0  0  0  0  0  0  0  0  0  0
   18.8286    5.6946    0.0000 C   0  0  0  0  0  0  0  0  0  0  0  0
   18.6050    7.1779    0.0000 N   0  0  0  0  0  0  0  0  0  0  0  0
   20.2249    5.1466    0.0000 N   0  0  0  0  0  0  0  0  0  0  0  0
   13.3158    2.7149    0.0000 N   0  0  0  0  0  0  0  0  0  0  0  0
   13.8112    1.2990    0.0000 C   0  0  0  0  0  0  0  0  0  0  0  0
   15.2736    1.6328    0.0000 O   0  0  0  0  0  0  0  0  0  0  0  0
  2  1  1  6
  2  3  1  0
  3  4  1  0
  4  5  2  0
  4  6  1  0
  6  7  1  1
  7  8  1  0
  8  9  2  0
  9 10  1  0
 10 11  2  0
 11 12  1  0
 12 13  2  0
  6 14  1  0
 14 15  1  0
 15 16  2  0
 15 17  1  0
 17 18  1  0
 18 19  1  0
 19 20  1  0
 20 21  1  0
 21 22  1  0
 22 23  1  0
 23 24  2  0
 23 25  1  0
 25 26  1  0
 26 27  2  0
 27 28  1  0
 28 29  2  0
 29 30  1  0
 29 31  1  0
 31 32  2  0
 31 33  1  0
 33 34  1  0
 34 35  1  1
 35 36  1  0
 36 37  2  0
 37 38  1  0
 38 39  2  0
 39 40  1  0
 40 41  2  0
 41 42  1  0
 42 43  2  0
 43 44  1  0
 44 45  2  0
 34 46  1  0
 46 47  2  0
 46 48  1  0
 48 49  1  0
 49 50  1  6
 50 51  1  0
 49 52  1  0
 52 53  2  0
 52 54  1  0
 54 55  1  0
 55 56  1  6
 56 57  1  0
 57 58  1  0
 57 59  2  0
 55 60  1  0
 60 61  2  0
 60 62  1  0
 62 63  1  0
 63 64  1  1
 64 65  1  0
 65 66  2  0
 66 67  1  0
 67 68  2  0
 68 69  1  0
 69 70  2  0
 70 71  1  0
 71 72  2  0
 72 73  1  0
 73 74  2  0
 63 75  1  0
 75 76  2  0
 75 77  1  0
 77 78  1  0
 78 79  1  6
 79 80  2  0
 80 81  1  0
 81 82  2  0
 82 83  1  0
 83 84  2  0
 78 85  1  0
 85 86  2  0
 85 87  1  0
 27 88  1  0
 88 89  2  0
 88 90  1  0
 90 91  1  0
 91 92  1  0
 92 93  1  1
 93 94  2  0
 93 95  1  0
 95 96  1  0
 96 97  1  6
 97 98  1  0
 98 99  1  0
 99100  1  0
 96101  1  0
101102  2  0
101103  1  0
103104  1  0
104105  1  1
105106  1  0
106107  1  0
107108  1  0
108109  1  0
109110  2  0
109111  1  0
104112  1  0
112113  2  0
112114  1  0
114115  1  0
115116  1  6
116117  1  0
117118  1  0
118119  2  0
119120  1  0
120121  2  0
121122  1  0
122123  2  0
115124  1  0
124125  2  0
124126  1  0
126127  1  0
127128  1  1
127129  1  0
129130  1  0
129131  2  0
 92132  1  0
132133  1  0
133134  2  0
133135  1  0
135136  1  6
136137  1  0
137138  1  0
138139  1  0
139140  1  0
140141  2  0
140142  1  0
135143  1  0
143144  1  0
144145  2  0
144146  1  0
146147  1  1
147148  1  0
148149  1  0
149150  1  0
150151  1  0
151152  2  0
151153  1  0
146154  1  0
154155  1  0
155156  2  0
155  2  1  0
 13  8  1  0
 17 87  1  1
123118  1  0
 30 25  2  0
 45 36  1  0
 74 65  1  0
 84 79  1  0
 44 39  1  0
 73 68  1  0
M  END
>  <molecule_chembl_id>  (156) 
CHEMBL4851141

>  <canonical_smiles>  (156) 
C[C@@H]1NC(=O)[C@@H](Cc2ccccc2)NC(=O)[C@@H]2CCCCNC(=O)c3cc(cc(c3)C(=O)N[C@H](Cc3ccc4ccccc4c3)C(=O)N[C@@H](CO)C(=O)N[C@@H](CC(N)=O)C(=O)N[C@H](Cc3ccc4ccccc4c3)C(=O)N[C@@H](c3ccccc3)C(=O)N2)C(=O)NC[C@@H](C(=O)N[C@@H](CCCN)C(=O)N[C@H](CCCNC(=N)N)C(=O)N[C@@H](CCc2ccccc2)C(=O)N[C@H](C)C(N)=O)NC(=O)[C@H](CCCNC(=N)N)NC(=O)[C@@H](CCCNC(=N)N)NC1=O

>  <pchembl_value_mean>  (156) 
6.11

>  <inchi>  (156) 
InChI=1S/C107H137N29O20/c1-59(87(110)139)122-92(144)78(42-39-61-22-6-3-7-23-61)128-95(147)76(35-20-46-119-106(113)114)125-93(145)74(33-18-43-108)127-102(154)83-57-121-90(142)71-53-70-54-72(55-71)91(143)130-80(51-63-37-40-65-26-12-14-30-68(65)48-63)99(151)135-84(58-137)103(155)133-82(56-85(109)138)100(152)132-81(52-64-38-41-66-27-13-15-31-69(66)49-64)101(153)136-86(67-28-10-5-11-29-67)104(156)129-73(32-16-17-44-117-89(70)141)96(148)131-79(50-62-24-8-4-9-25-62)98(150)123-60(2)88(140)124-75(34-19-45-118-105(111)112)94(146)126-77(97(149)134-83)36-21-47-120-107(115)116/h3-15,22-31,37-38,40-41,48-49,53-55,59-60,73-84,86,137H,16-21,32-36,39,42-47,50-52,56-58,108H2,1-2H3,(H2,109,138)(H2,110,139)(H,117,141)(H,121,142)(H,122,144)(H,123,150)(H,124,140)(H,125,145)(H,126,146)(H,127,154)(H,128,147)(H,129,156)(H,130,143)(H,131,148)(H,132,152)(H,133,155)(H,134,149)(H,135,151)(H,136,153)(H4,111,112,118)(H4,113,114,119)(H4,115,116,120)/t59-,60+,73+,74+,75-,76-,77+,78+,79-,80-,81-,82+,83+,84+,86+/m1/s1

$$$$

     RDKit          2D

154163  0  0  0  0  0  0  0  0999 V2000
   15.4792   -0.1915    0.0000 C   0  0  0  0  0  0  0  0  0  0  0  0
   13.9792   -0.1915    0.0000 C   0  0  0  0  0  0  0  0  0  0  0  0
   13.8112   -1.6821    0.0000 N   0  0  0  0  0  0  0  0  0  0  0  0
   13.3158   -3.0979    0.0000 C   0  0  0  0  0  0  0  0  0  0  0  0
   14.6672   -3.7487    0.0000 O   0  0  0  0  0  0  0  0  0  0  0  0
   12.5177   -4.3680    0.0000 C   0  0  0  0  0  0  0  0  0  0  0  0
   13.6905   -5.3032    0.0000 C   0  0  0  0  0  0  0  0  0  0  0  0
   13.4669   -6.7865    0.0000 C   0  0  0  0  0  0  0  0  0  0  0  0
   12.0706   -7.3345    0.0000 C   0  0  0  0  0  0  0  0  0  0  0  0
   11.8471   -8.8177    0.0000 C   0  0  0  0  0  0  0  0  0  0  0  0
   13.0198   -9.7530    0.0000 C   0  0  0  0  0  0  0  0  0  0  0  0
   14.4161   -9.2050    0.0000 C   0  0  0  0  0  0  0  0  0  0  0  0
   14.6397   -7.7217    0.0000 C   0  0  0  0  0  0  0  0  0  0  0  0
   11.4571   -5.4287    0.0000 N   0  0  0  0  0  0  0  0  0  0  0  0
   10.1870   -6.2267    0.0000 C   0  0  0  0  0  0  0  0  0  0  0  0
   10.8378   -7.5782    0.0000 O   0  0  0  0  0  0  0  0  0  0  0  0
    8.7712   -6.7221    0.0000 C   0  0  0  0  0  0  0  0  0  0  0  0
    7.2806   -6.8901    0.0000 C   0  0  0  0  0  0  0  0  0  0  0  0
    5.7900   -6.7221    0.0000 C   0  0  0  0  0  0  0  0  0  0  0  0
    4.3742   -6.2267    0.0000 C   0  0  0  0  0  0  0  0  0  0  0  0
    3.1041   -5.4287    0.0000 C   0  0  0  0  0  0  0  0  0  0  0  0
    2.0435   -4.3680    0.0000 N   0  0  0  0  0  0  0  0  0  0  0  0
    1.2454   -3.0979    0.0000 C   0  0  0  0  0  0  0  0  0  0  0  0
   -0.1060   -3.7487    0.0000 O   0  0  0  0  0  0  0  0  0  0  0  0
    0.7500   -1.2990    0.0000 C   0  0  0  0  0  0  0  0  0  0  0  0
    1.5000    0.0000    0.0000 C   0  0  0  0  0  0  0  0  0  0  0  0
    0.7500    1.2990    0.0000 C   0  0  0  0  0  0  0  0  0  0  0  0
   -0.7500    1.2990    0.0000 C   0  0  0  0  0  0  0  0  0  0  0  0
   -1.5000    0.0000    0.0000 C   0  0  0  0  0  0  0  0  0  0  0  0
   -0.7500   -1.2990    0.0000 C   0  0  0  0  0  0  0  0  0  0  0  0
   -2.3002   -1.3623    0.0000 C   0  0  0  0  0  0  0  0  0  0  0  0
   -3.7181    0.3198    0.0000 O   0  0  0  0  0  0  0  0  0  0  0  0
   -3.2158   -2.3372    0.0000 N   0  0  0  0  0  0  0  0  0  0  0  0
   -3.8819   -3.4970    0.0000 C   0  0  0  0  0  0  0  0  0  0  0  0
   -5.9040   -2.6302    0.0000 C   0  0  0  0  0  0  0  0  0  0  0  0
   -6.0815   -1.1408    0.0000 C   0  0  0  0  0  0  0  0  0  0  0  0
   -4.8803   -0.2423    0.0000 C   0  0  0  0  0  0  0  0  0  0  0  0
   -5.0578    1.2471    0.0000 C   0  0  0  0  0  0  0  0  0  0  0  0
   -6.4365    1.8381    0.0000 C   0  0  0  0  0  0  0  0  0  0  0  0
   -6.6140    3.3276    0.0000 C   0  0  0  0  0  0  0  0  0  0  0  0
   -7.9927    3.9186    0.0000 C   0  0  0  0  0  0  0  0  0  0  0  0
   -9.1939    3.0201    0.0000 C   0  0  0  0  0  0  0  0  0  0  0  0
   -9.0163    1.5307    0.0000 C   0  0  0  0  0  0  0  0  0  0  0  0
   -7.6377    0.9397    0.0000 C   0  0  0  0  0  0  0  0  0  0  0  0
   -7.4602   -0.5498    0.0000 C   0  0  0  0  0  0  0  0  0  0  0  0
   -4.2626   -4.7792    0.0000 C   0  0  0  0  0  0  0  0  0  0  0  0
   -6.4300   -4.4021    0.0000 O   0  0  0  0  0  0  0  0  0  0  0  0
   -4.3373   -6.1146    0.0000 N   0  0  0  0  0  0  0  0  0  0  0  0
   -4.1021   -7.4312    0.0000 C   0  0  0  0  0  0  0  0  0  0  0  0
   -6.2082   -8.0669    0.0000 C   0  0  0  0  0  0  0  0  0  0  0  0
   -7.3016   -7.0400    0.0000 O   0  0  0  0  0  0  0  0  0  0  0  0
   -3.5696   -8.6581    0.0000 C   0  0  0  0  0  0  0  0  0  0  0  0
   -5.4723   -9.7624    0.0000 O   0  0  0  0  0  0  0  0  0  0  0  0
   -2.7685   -9.7291    0.0000 N   0  0  0  0  0  0  0  0  0  0  0  0
   -1.7420  -10.5864    0.0000 C   0  0  0  0  0  0  0  0  0  0  0  0
   -2.9467  -12.4273    0.0000 C   0  0  0  0  0  0  0  0  0  0  0  0
   -4.4444  -12.3434    0.0000 C   0  0  0  0  0  0  0  0  0  0  0  0
   -5.2658  -13.5985    0.0000 N   0  0  0  0  0  0  0  0  0  0  0  0
   -5.1206  -11.0045    0.0000 O   0  0  0  0  0  0  0  0  0  0  0  0
   -0.5454  -11.1840    0.0000 C   0  0  0  0  0  0  0  0  0  0  0  0
   -1.2931  -13.2530    0.0000 O   0  0  0  0  0  0  0  0  0  0  0  0
    0.7567  -11.4895    0.0000 N   0  0  0  0  0  0  0  0  0  0  0  0
    2.0942  -11.4864    0.0000 C   0  0  0  0  0  0  0  0  0  0  0  0
    2.3546  -13.6710    0.0000 C   0  0  0  0  0  0  0  0  0  0  0  0
    1.1534  -14.5694    0.0000 C   0  0  0  0  0  0  0  0  0  0  0  0
   -0.2253  -13.9785    0.0000 C   0  0  0  0  0  0  0  0  0  0  0  0
   -1.4264  -14.8769    0.0000 C   0  0  0  0  0  0  0  0  0  0  0  0
   -1.2489  -16.3664    0.0000 C   0  0  0  0  0  0  0  0  0  0  0  0
   -2.4501  -17.2648    0.0000 C   0  0  0  0  0  0  0  0  0  0  0  0
   -2.2725  -18.7543    0.0000 C   0  0  0  0  0  0  0  0  0  0  0  0
   -0.8939  -19.3453    0.0000 C   0  0  0  0  0  0  0  0  0  0  0  0
    0.3073  -18.4468    0.0000 C   0  0  0  0  0  0  0  0  0  0  0  0
    0.1298  -16.9574    0.0000 C   0  0  0  0  0  0  0  0  0  0  0  0
    1.3309  -16.0589    0.0000 C   0  0  0  0  0  0  0  0  0  0  0  0
    3.3949  -11.1751    0.0000 C   0  0  0  0  0  0  0  0  0  0  0  0
    4.1520  -13.2407    0.0000 O   0  0  0  0  0  0  0  0  0  0  0  0
    4.5887  -10.5721    0.0000 N   0  0  0  0  0  0  0  0  0  0  0  0
    5.6114   -9.7101    0.0000 C   0  0  0  0  0  0  0  0  0  0  0  0
    7.2150  -11.2162    0.0000 C   0  0  0  0  0  0  0  0  0  0  0  0
    6.8724  -12.6765    0.0000 C   0  0  0  0  0  0  0  0  0  0  0  0
    7.9658  -13.7034    0.0000 C   0  0  0  0  0  0  0  0  0  0  0  0
    9.4018  -13.2699    0.0000 C   0  0  0  0  0  0  0  0  0  0  0  0
    9.7444  -11.8096    0.0000 C   0  0  0  0  0  0  0  0  0  0  0  0
    8.6510  -10.7827    0.0000 C   0  0  0  0  0  0  0  0  0  0  0  0
    6.4076   -8.6354    0.0000 C   0  0  0  0  0  0  0  0  0  0  0  0
    8.3154   -9.7311    0.0000 O   0  0  0  0  0  0  0  0  0  0  0  0
    8.1358   -8.0625    0.0000 N   0  0  0  0  0  0  0  0  0  0  0  0
    1.2454    2.7149    0.0000 C   0  0  0  0  0  0  0  0  0  0  0  0
    0.0946    3.1047    0.0000 O   0  0  0  0  0  0  0  0  0  0  0  0
    2.0435    3.9849    0.0000 N   0  0  0  0  0  0  0  0  0  0  0  0
    3.1041    5.0456    0.0000 C   0  0  0  0  0  0  0  0  0  0  0  0
    4.3742    5.8437    0.0000 C   0  0  0  0  0  0  0  0  0  0  0  0
    3.7234    7.1951    0.0000 C   0  0  0  0  0  0  0  0  0  0  0  0
    2.2276    7.3072    0.0000 O   0  0  0  0  0  0  0  0  0  0  0  0
    4.5684    8.4345    0.0000 N   0  0  0  0  0  0  0  0  0  0  0  0
    3.9175    9.7859    0.0000 C   0  0  0  0  0  0  0  0  0  0  0  0
    4.7625   11.0253    0.0000 C   0  0  0  0  0  0  0  0  0  0  0  0
    4.1117   12.3767    0.0000 C   0  0  0  0  0  0  0  0  0  0  0  0
    4.9567   13.6161    0.0000 C   0  0  0  0  0  0  0  0  0  0  0  0
    4.3059   14.9675    0.0000 N   0  0  0  0  0  0  0  0  0  0  0  0
    2.4217    9.8980    0.0000 C   0  0  0  0  0  0  0  0  0  0  0  0
    1.5768    8.6587    0.0000 O   0  0  0  0  0  0  0  0  0  0  0  0
    1.7709   11.2495    0.0000 N   0  0  0  0  0  0  0  0  0  0  0  0
    0.2751   11.3616    0.0000 C   0  0  0  0  0  0  0  0  0  0  0  0
   -0.3757   12.7130    0.0000 C   0  0  0  0  0  0  0  0  0  0  0  0
   -1.8715   12.8251    0.0000 C   0  0  0  0  0  0  0  0  0  0  0  0
   -2.5224   14.1766    0.0000 C   0  0  0  0  0  0  0  0  0  0  0  0
   -4.0182   14.2887    0.0000 N   0  0  0  0  0  0  0  0  0  0  0  0
   -4.6690   15.6401    0.0000 C   0  0  0  0  0  0  0  0  0  0  0  0
   -3.8240   16.8795    0.0000 N   0  0  0  0  0  0  0  0  0  0  0  0
   -6.1648   15.7522    0.0000 N   0  0  0  0  0  0  0  0  0  0  0  0
   -0.5699   10.1222    0.0000 C   0  0  0  0  0  0  0  0  0  0  0  0
    0.0810    8.7708    0.0000 O   0  0  0  0  0  0  0  0  0  0  0  0
   -2.0657   10.2343    0.0000 N   0  0  0  0  0  0  0  0  0  0  0  0
   -2.9107    8.9949    0.0000 C   0  0  0  0  0  0  0  0  0  0  0  0
   -2.2598    7.6435    0.0000 C   0  0  0  0  0  0  0  0  0  0  0  0
   -0.7640    7.5314    0.0000 O   0  0  0  0  0  0  0  0  0  0  0  0
   -3.1048    6.4041    0.0000 N   0  0  0  0  0  0  0  0  0  0  0  0
   -2.4540    5.0527    0.0000 C   0  0  0  0  0  0  0  0  0  0  0  0
   -3.2990    3.8133    0.0000 C   0  0  0  0  0  0  0  0  0  0  0  0
   -0.9582    4.9406    0.0000 C   0  0  0  0  0  0  0  0  0  0  0  0
   -0.1132    6.1799    0.0000 N   0  0  0  0  0  0  0  0  0  0  0  0
   -0.5684    3.7898    0.0000 O   0  0  0  0  0  0  0  0  0  0  0  0
   -4.4065    9.1070    0.0000 C   0  0  0  0  0  0  0  0  0  0  0  0
   -5.0573   10.4585    0.0000 C   0  0  0  0  0  0  0  0  0  0  0  0
   -6.5531   10.5706    0.0000 C   0  0  0  0  0  0  0  0  0  0  0  0
   -7.3981    9.3312    0.0000 C   0  0  0  0  0  0  0  0  0  0  0  0
   -6.7473    7.9798    0.0000 C   0  0  0  0  0  0  0  0  0  0  0  0
   -5.2514    7.8677    0.0000 C   0  0  0  0  0  0  0  0  0  0  0  0
    5.7900    6.3391    0.0000 N   0  0  0  0  0  0  0  0  0  0  0  0
    7.2806    6.5070    0.0000 C   0  0  0  0  0  0  0  0  0  0  0  0
    7.2806    8.0070    0.0000 O   0  0  0  0  0  0  0  0  0  0  0  0
    8.7712    6.3391    0.0000 C   0  0  0  0  0  0  0  0  0  0  0  0
    9.1050    7.8015    0.0000 C   0  0  0  0  0  0  0  0  0  0  0  0
   10.5383    8.2436    0.0000 C   0  0  0  0  0  0  0  0  0  0  0  0
   10.8721    9.7060    0.0000 C   0  0  0  0  0  0  0  0  0  0  0  0
   12.3055   10.1481    0.0000 N   0  0  0  0  0  0  0  0  0  0  0  0
   12.6392   11.6105    0.0000 C   0  0  0  0  0  0  0  0  0  0  0  0
   11.5397   12.6308    0.0000 N   0  0  0  0  0  0  0  0  0  0  0  0
   14.0726   12.0527    0.0000 N   0  0  0  0  0  0  0  0  0  0  0  0
   10.1870    5.8437    0.0000 N   0  0  0  0  0  0  0  0  0  0  0  0
   11.4571    5.0456    0.0000 C   0  0  0  0  0  0  0  0  0  0  0  0
   12.3923    6.2184    0.0000 O   0  0  0  0  0  0  0  0  0  0  0  0
   12.5177    3.9849    0.0000 C   0  0  0  0  0  0  0  0  0  0  0  0
   13.6905    4.9202    0.0000 C   0  0  0  0  0  0  0  0  0  0  0  0
   15.0868    4.3722    0.0000 C   0  0  0  0  0  0  0  0  0  0  0  0
   16.2596    5.3074    0.0000 C   0  0  0  0  0  0  0  0  0  0  0  0
   17.6559    4.7594    0.0000 N   0  0  0  0  0  0  0  0  0  0  0  0
   18.8286    5.6946    0.0000 C   0  0  0  0  0  0  0  0  0  0  0  0
   18.6050    7.1779    0.0000 N   0  0  0  0  0  0  0  0  0  0  0  0
   20.2249    5.1466    0.0000 N   0  0  0  0  0  0  0  0  0  0  0  0
   13.3158    2.7149    0.0000 N   0  0  0  0  0  0  0  0  0  0  0  0
   13.8112    1.2990    0.0000 C   0  0  0  0  0  0  0  0  0  0  0  0
   15.2736    1.6328    0.0000 O   0  0  0  0  0  0  0  0  0  0  0  0
  2  1  1  6
  2  3  1  0
  3  4  1  0
  4  5  2  0
  4  6  1  0
  6  7  1  1
  7  8  1  0
  8  9  2  0
  9 10  1  0
 10 11  2  0
 11 12  1  0
 12 13  2  0
  6 14  1  0
 14 15  1  0
 15 16  2  0
 15 17  1  0
 17 18  1  0
 18 19  1  0
 19 20  1  0
 20 21  1  0
 21 22  1  0
 22 23  1  0
 23 24  2  0
 23 25  1  0
 25 26  1  0
 26 27  2  0
 27 28  1  0
 28 29  2  0
 29 30  1  0
 29 31  1  0
 31 32  2  0
 31 33  1  0
 33 34  1  0
 34 35  1  1
 35 36  1  0
 36 37  2  0
 37 38  1  0
 38 39  2  0
 39 40  1  0
 40 41  2  0
 41 42  1  0
 42 43  2  0
 43 44  1  0
 44 45  2  0
 34 46  1  0
 46 47  2  0
 46 48  1  0
 48 49  1  0
 49 50  1  6
 50 51  1  0
 49 52  1  0
 52 53  2  0
 52 54  1  0
 54 55  1  0
 55 56  1  6
 56 57  1  0
 57 58  1  0
 57 59  2  0
 55 60  1  0
 60 61  2  0
 60 62  1  0
 62 63  1  0
 63 64  1  1
 64 65  1  0
 65 66  2  0
 66 67  1  0
 67 68  2  0
 68 69  1  0
 69 70  2  0
 70 71  1  0
 71 72  2  0
 72 73  1  0
 73 74  2  0
 63 75  1  0
 75 76  2  0
 75 77  1  0
 77 78  1  0
 78 79  1  6
 79 80  2  0
 80 81  1  0
 81 82  2  0
 82 83  1  0
 83 84  2  0
 78 85  1  0
 85 86  2  0
 85 87  1  0
 27 88  1  0
 88 89  2  0
 88 90  1  0
 90 91  1  0
 91 92  1  0
 92 93  1  1
 93 94  2  0
 93 95  1  0
 95 96  1  0
 96 97  1  6
 97 98  1  0
 98 99  1  0
 99100  1  0
 96101  1  0
101102  2  0
101103  1  0
103104  1  0
104105  1  1
105106  1  0
106107  1  0
107108  1  0
108109  1  0
109110  2  0
109111  1  0
104112  1  0
112113  2  0
112114  1  0
115114  1  6
115116  1  0
116117  2  0
116118  1  0
118119  1  0
119120  1  1
119121  1  0
121122  1  0
121123  2  0
115124  1  0
124125  2  0
125126  1  0
126127  2  0
127128  1  0
128129  2  0
 92130  1  0
130131  1  0
131132  2  0
131133  1  0
133134  1  6
134135  1  0
135136  1  0
136137  1  0
137138  1  0
138139  2  0
138140  1  0
133141  1  0
141142  1  0
142143  2  0
142144  1  0
144145  1  1
145146  1  0
146147  1  0
147148  1  0
148149  1  0
149150  2  0
149151  1  0
144152  1  0
152153  1  0
153154  2  0
153  2  1  0
 13  8  1  0
 17 87  1  1
129124  1  0
 30 25  2  0
 45 36  1  0
 74 65  1  0
 84 79  1  0
 44 39  1  0
 73 68  1  0
M  END
>  <molecule_chembl_id>  (157) 
CHEMBL4870215

>  <canonical_smiles>  (157) 
C[C@@H]1NC(=O)[C@@H](Cc2ccccc2)NC(=O)[C@@H]2CCCCNC(=O)c3cc(cc(c3)C(=O)N[C@H](Cc3ccc4ccccc4c3)C(=O)N[C@@H](CO)C(=O)N[C@@H](CC(N)=O)C(=O)N[C@H](Cc3ccc4ccccc4c3)C(=O)N[C@@H](c3ccccc3)C(=O)N2)C(=O)NC[C@@H](C(=O)N[C@@H](CCCN)C(=O)N[C@H](CCCNC(=N)N)C(=O)N[C@H](C(=O)N[C@H](C)C(N)=O)c2ccccc2)NC(=O)[C@H](CCCNC(=N)N)NC(=O)[C@@H](CCCNC(=N)N)NC1=O

>  <pchembl_value_mean>  (157) 
6.12

>  <inchi>  (157) 
InChI=1S/C105H133N29O20/c1-57(85(108)137)120-101(153)83(64-26-8-4-9-27-64)133-94(146)75(36-21-45-118-105(113)114)124-90(142)72(33-18-41-106)125-99(151)80-55-119-88(140)69-51-68-52-70(53-69)89(141)127-77(49-60-37-39-62-24-12-14-30-66(62)46-60)96(148)132-81(56-135)100(152)130-79(54-82(107)136)97(149)129-78(50-61-38-40-63-25-13-15-31-67(63)47-61)98(150)134-84(65-28-10-5-11-29-65)102(154)126-71(32-16-17-42-115-87(68)139)92(144)128-76(48-59-22-6-3-7-23-59)95(147)121-58(2)86(138)122-73(34-19-43-116-103(109)110)91(143)123-74(93(145)131-80)35-20-44-117-104(111)112/h3-15,22-31,37-40,46-47,51-53,57-58,71-81,83-84,135H,16-21,32-36,41-45,48-50,54-56,106H2,1-2H3,(H2,107,136)(H2,108,137)(H,115,139)(H,119,140)(H,120,153)(H,121,147)(H,122,138)(H,123,143)(H,124,142)(H,125,151)(H,126,154)(H,127,141)(H,128,144)(H,129,149)(H,130,152)(H,131,145)(H,132,148)(H,133,146)(H,134,150)(H4,109,110,116)(H4,111,112,117)(H4,113,114,118)/t57-,58+,71+,72+,73-,74+,75-,76-,77-,78-,79+,80+,81+,83+,84+/m1/s1

$$$$

     RDKit          2D

160169  0  0  0  0  0  0  0  0999 V2000
   11.5397   12.6308    0.0000 N   0  0  0  0  0  0  0  0  0  0  0  0
   12.6392   11.6105    0.0000 C   0  0  0  0  0  0  0  0  0  0  0  0
   14.0726   12.0527    0.0000 N   0  0  0  0  0  0  0  0  0  0  0  0
   12.3055   10.1481    0.0000 N   0  0  0  0  0  0  0  0  0  0  0  0
   10.8721    9.7060    0.0000 C   0  0  0  0  0  0  0  0  0  0  0  0
   10.5383    8.2436    0.0000 C   0  0  0  0  0  0  0  0  0  0  0  0
    9.1050    7.8015    0.0000 C   0  0  0  0  0  0  0  0  0  0  0  0
    8.7712    6.3391    0.0000 C   0  0  0  0  0  0  0  0  0  0  0  0
   10.1870    5.8437    0.0000 N   0  0  0  0  0  0  0  0  0  0  0  0
   11.4571    5.0456    0.0000 C   0  0  0  0  0  0  0  0  0  0  0  0
   12.3923    6.2184    0.0000 O   0  0  0  0  0  0  0  0  0  0  0  0
   12.5177    3.9849    0.0000 C   0  0  0  0  0  0  0  0  0  0  0  0
   13.6905    4.9202    0.0000 C   0  0  0  0  0  0  0  0  0  0  0  0
   15.0868    4.3722    0.0000 C   0  0  0  0  0  0  0  0  0  0  0  0
   16.2596    5.3074    0.0000 C   0  0  0  0  0  0  0  0  0  0  0  0
   17.6559    4.7594    0.0000 N   0  0  0  0  0  0  0  0  0  0  0  0
   18.8286    5.6946    0.0000 C   0  0  0  0  0  0  0  0  0  0  0  0
   18.6050    7.1779    0.0000 N   0  0  0  0  0  0  0  0  0  0  0  0
   20.2249    5.1466    0.0000 N   0  0  0  0  0  0  0  0  0  0  0  0
   13.3158    2.7149    0.0000 N   0  0  0  0  0  0  0  0  0  0  0  0
   13.8112    1.2990    0.0000 C   0  0  0  0  0  0  0  0  0  0  0  0
   15.2736    1.6328    0.0000 O   0  0  0  0  0  0  0  0  0  0  0  0
   13.9792   -0.1915    0.0000 C   0  0  0  0  0  0  0  0  0  0  0  0
   15.4792   -0.1915    0.0000 C   0  0  0  0  0  0  0  0  0  0  0  0
   16.2292   -1.4906    0.0000 C   0  0  0  0  0  0  0  0  0  0  0  0
   17.7292   -1.4906    0.0000 C   0  0  0  0  0  0  0  0  0  0  0  0
   18.4792   -2.7896    0.0000 N   0  0  0  0  0  0  0  0  0  0  0  0
   18.4792   -0.1915    0.0000 O   0  0  0  0  0  0  0  0  0  0  0  0
   13.8112   -1.6821    0.0000 N   0  0  0  0  0  0  0  0  0  0  0  0
   13.3158   -3.0979    0.0000 C   0  0  0  0  0  0  0  0  0  0  0  0
   14.6672   -3.7487    0.0000 O   0  0  0  0  0  0  0  0  0  0  0  0
   12.5177   -4.3680    0.0000 C   0  0  0  0  0  0  0  0  0  0  0  0
   13.6905   -5.3032    0.0000 C   0  0  0  0  0  0  0  0  0  0  0  0
   13.4669   -6.7865    0.0000 C   0  0  0  0  0  0  0  0  0  0  0  0
   12.0706   -7.3345    0.0000 C   0  0  0  0  0  0  0  0  0  0  0  0
   11.8471   -8.8177    0.0000 C   0  0  0  0  0  0  0  0  0  0  0  0
   13.0198   -9.7530    0.0000 C   0  0  0  0  0  0  0  0  0  0  0  0
   14.4161   -9.2050    0.0000 C   0  0  0  0  0  0  0  0  0  0  0  0
   14.6397   -7.7217    0.0000 C   0  0  0  0  0  0  0  0  0  0  0  0
   11.4571   -5.4287    0.0000 N   0  0  0  0  0  0  0  0  0  0  0  0
   10.1870   -6.2267    0.0000 C   0  0  0  0  0  0  0  0  0  0  0  0
   10.8378   -7.5782    0.0000 O   0  0  0  0  0  0  0  0  0  0  0  0
    8.7712   -6.7221    0.0000 C   0  0  0  0  0  0  0  0  0  0  0  0
    7.2806   -6.8901    0.0000 C   0  0  0  0  0  0  0  0  0  0  0  0
    5.7900   -6.7221    0.0000 C   0  0  0  0  0  0  0  0  0  0  0  0
    4.3742   -6.2267    0.0000 C   0  0  0  0  0  0  0  0  0  0  0  0
    3.1041   -5.4287    0.0000 C   0  0  0  0  0  0  0  0  0  0  0  0
    2.0435   -4.3680    0.0000 N   0  0  0  0  0  0  0  0  0  0  0  0
    1.2454   -3.0979    0.0000 C   0  0  0  0  0  0  0  0  0  0  0  0
   -0.1060   -3.7487    0.0000 O   0  0  0  0  0  0  0  0  0  0  0  0
    0.7500   -1.2990    0.0000 C   0  0  0  0  0  0  0  0  0  0  0  0
    1.5000    0.0000    0.0000 C   0  0  0  0  0  0  0  0  0  0  0  0
    0.7500    1.2990    0.0000 C   0  0  0  0  0  0  0  0  0  0  0  0
   -0.7500    1.2990    0.0000 C   0  0  0  0  0  0  0  0  0  0  0  0
   -1.5000    0.0000    0.0000 C   0  0  0  0  0  0  0  0  0  0  0  0
   -0.7500   -1.2990    0.0000 C   0  0  0  0  0  0  0  0  0  0  0  0
   -2.3002   -1.3623    0.0000 C   0  0  0  0  0  0  0  0  0  0  0  0
   -3.7181    0.3198    0.0000 O   0  0  0  0  0  0  0  0  0  0  0  0
   -3.2158   -2.3372    0.0000 N   0  0  0  0  0  0  0  0  0  0  0  0
   -3.8819   -3.4970    0.0000 C   0  0  0  0  0  0  0  0  0  0  0  0
   -5.9040   -2.6302    0.0000 C   0  0  0  0  0  0  0  0  0  0  0  0
   -6.0815   -1.1408    0.0000 C   0  0  0  0  0  0  0  0  0  0  0  0
   -4.8803   -0.2423    0.0000 C   0  0  0  0  0  0  0  0  0  0  0  0
   -5.0578    1.2471    0.0000 C   0  0  0  0  0  0  0  0  0  0  0  0
   -6.4365    1.8381    0.0000 C   0  0  0  0  0  0  0  0  0  0  0  0
   -6.6140    3.3276    0.0000 C   0  0  0  0  0  0  0  0  0  0  0  0
   -7.9927    3.9186    0.0000 C   0  0  0  0  0  0  0  0  0  0  0  0
   -9.1939    3.0201    0.0000 C   0  0  0  0  0  0  0  0  0  0  0  0
   -9.0163    1.5307    0.0000 C   0  0  0  0  0  0  0  0  0  0  0  0
   -7.6377    0.9397    0.0000 C   0  0  0  0  0  0  0  0  0  0  0  0
   -7.4602   -0.5498    0.0000 C   0  0  0  0  0  0  0  0  0  0  0  0
   -4.2626   -4.7792    0.0000 C   0  0  0  0  0  0  0  0  0  0  0  0
   -6.4300   -4.4021    0.0000 O   0  0  0  0  0  0  0  0  0  0  0  0
   -4.3373   -6.1146    0.0000 N   0  0  0  0  0  0  0  0  0  0  0  0
   -4.1021   -7.4312    0.0000 C   0  0  0  0  0  0  0  0  0  0  0  0
   -6.2082   -8.0669    0.0000 C   0  0  0  0  0  0  0  0  0  0  0  0
   -7.3016   -7.0400    0.0000 O   0  0  0  0  0  0  0  0  0  0  0  0
   -3.5696   -8.6581    0.0000 C   0  0  0  0  0  0  0  0  0  0  0  0
   -5.4723   -9.7624    0.0000 O   0  0  0  0  0  0  0  0  0  0  0  0
   -2.7685   -9.7291    0.0000 N   0  0  0  0  0  0  0  0  0  0  0  0
   -1.7420  -10.5864    0.0000 C   0  0  0  0  0  0  0  0  0  0  0  0
   -2.9467  -12.4273    0.0000 C   0  0  0  0  0  0  0  0  0  0  0  0
   -4.4444  -12.3434    0.0000 C   0  0  0  0  0  0  0  0  0  0  0  0
   -5.2658  -13.5985    0.0000 N   0  0  0  0  0  0  0  0  0  0  0  0
   -5.1206  -11.0045    0.0000 O   0  0  0  0  0  0  0  0  0  0  0  0
   -0.5454  -11.1840    0.0000 C   0  0  0  0  0  0  0  0  0  0  0  0
   -1.2931  -13.2530    0.0000 O   0  0  0  0  0  0  0  0  0  0  0  0
    0.7567  -11.4895    0.0000 N   0  0  0  0  0  0  0  0  0  0  0  0
    2.0942  -11.4864    0.0000 C   0  0  0  0  0  0  0  0  0  0  0  0
    2.3546  -13.6710    0.0000 C   0  0  0  0  0  0  0  0  0  0  0  0
    1.1534  -14.5694    0.0000 C   0  0  0  0  0  0  0  0  0  0  0  0
   -0.2253  -13.9785    0.0000 C   0  0  0  0  0  0  0  0  0  0  0  0
   -1.4264  -14.8769    0.0000 C   0  0  0  0  0  0  0  0  0  0  0  0
   -1.2489  -16.3664    0.0000 C   0  0  0  0  0  0  0  0  0  0  0  0
   -2.4501  -17.2648    0.0000 C   0  0  0  0  0  0  0  0  0  0  0  0
   -2.2725  -18.7543    0.0000 C   0  0  0  0  0  0  0  0  0  0  0  0
   -0.8939  -19.3453    0.0000 C   0  0  0  0  0  0  0  0  0  0  0  0
    0.3073  -18.4468    0.0000 C   0  0  0  0  0  0  0  0  0  0  0  0
    0.1298  -16.9574    0.0000 C   0  0  0  0  0  0  0  0  0  0  0  0
    1.3309  -16.0589    0.0000 C   0  0  0  0  0  0  0  0  0  0  0  0
    3.3949  -11.1751    0.0000 C   0  0  0  0  0  0  0  0  0  0  0  0
    4.1520  -13.2407    0.0000 O   0  0  0  0  0  0  0  0  0  0  0  0
    4.5887  -10.5721    0.0000 N   0  0  0  0  0  0  0  0  0  0  0  0
    5.6114   -9.7101    0.0000 C   0  0  0  0  0  0  0  0  0  0  0  0
    7.2150  -11.2162    0.0000 C   0  0  0  0  0  0  0  0  0  0  0  0
    6.8724  -12.6765    0.0000 C   0  0  0  0  0  0  0  0  0  0  0  0
    7.9658  -13.7034    0.0000 C   0  0  0  0  0  0  0  0  0  0  0  0
    9.4018  -13.2699    0.0000 C   0  0  0  0  0  0  0  0  0  0  0  0
    9.7444  -11.8096    0.0000 C   0  0  0  0  0  0  0  0  0  0  0  0
    8.6510  -10.7827    0.0000 C   0  0  0  0  0  0  0  0  0  0  0  0
    6.4076   -8.6354    0.0000 C   0  0  0  0  0  0  0  0  0  0  0  0
    8.3154   -9.7311    0.0000 O   0  0  0  0  0  0  0  0  0  0  0  0
    8.1358   -8.0625    0.0000 N   0  0  0  0  0  0  0  0  0  0  0  0
    1.2454    2.7149    0.0000 C   0  0  0  0  0  0  0  0  0  0  0  0
    0.0946    3.1047    0.0000 O   0  0  0  0  0  0  0  0  0  0  0  0
    2.0435    3.9849    0.0000 N   0  0  0  0  0  0  0  0  0  0  0  0
    3.1041    5.0456    0.0000 C   0  0  0  0  0  0  0  0  0  0  0  0
    4.3742    5.8437    0.0000 C   0  0  0  0  0  0  0  0  0  0  0  0
    3.7234    7.1951    0.0000 C   0  0  0  0  0  0  0  0  0  0  0  0
    2.2276    7.3072    0.0000 O   0  0  0  0  0  0  0  0  0  0  0  0
    4.5684    8.4345    0.0000 N   0  0  0  0  0  0  0  0  0  0  0  0
    3.9175    9.7859    0.0000 C   0  0  0  0  0  0  0  0  0  0  0  0
    4.7625   11.0253    0.0000 C   0  0  0  0  0  0  0  0  0  0  0  0
    4.1117   12.3767    0.0000 C   0  0  0  0  0  0  0  0  0  0  0  0
    4.9567   13.6161    0.0000 C   0  0  0  0  0  0  0  0  0  0  0  0
    4.3059   14.9675    0.0000 N   0  0  0  0  0  0  0  0  0  0  0  0
    2.4217    9.8980    0.0000 C   0  0  0  0  0  0  0  0  0  0  0  0
    1.5768    8.6587    0.0000 O   0  0  0  0  0  0  0  0  0  0  0  0
    1.7709   11.2495    0.0000 N   0  0  0  0  0  0  0  0  0  0  0  0
    0.2751   11.3616    0.0000 C   0  0  0  0  0  0  0  0  0  0  0  0
   -0.3757   12.7130    0.0000 C   0  0  0  0  0  0  0  0  0  0  0  0
   -1.8715   12.8251    0.0000 C   0  0  0  0  0  0  0  0  0  0  0  0
   -2.5224   14.1766    0.0000 C   0  0  0  0  0  0  0  0  0  0  0  0
   -4.0182   14.2887    0.0000 N   0  0  0  0  0  0  0  0  0  0  0  0
   -4.6690   15.6401    0.0000 C   0  0  0  0  0  0  0  0  0  0  0  0
   -3.8240   16.8795    0.0000 N   0  0  0  0  0  0  0  0  0  0  0  0
   -6.1648   15.7522    0.0000 N   0  0  0  0  0  0  0  0  0  0  0  0
   -0.5699   10.1222    0.0000 C   0  0  0  0  0  0  0  0  0  0  0  0
    0.0810    8.7708    0.0000 O   0  0  0  0  0  0  0  0  0  0  0  0
   -2.0657   10.2343    0.0000 N   0  0  0  0  0  0  0  0  0  0  0  0
   -2.9107    8.9949    0.0000 C   0  0  0  0  0  0  0  0  0  0  0  0
   -4.4065    9.1070    0.0000 C   0  0  0  0  0  0  0  0  0  0  0  0
   -5.2514    7.8677    0.0000 C   0  0  0  0  0  0  0  0  0  0  0  0
   -6.7473    7.9798    0.0000 C   0  0  0  0  0  0  0  0  0  0  0  0
   -7.5922    6.7404    0.0000 C   0  0  0  0  0  0  0  0  0  0  0  0
   -6.9414    5.3890    0.0000 C   0  0  0  0  0  0  0  0  0  0  0  0
   -5.4456    5.2769    0.0000 C   0  0  0  0  0  0  0  0  0  0  0  0
   -4.6006    6.5162    0.0000 C   0  0  0  0  0  0  0  0  0  0  0  0
   -2.2598    7.6435    0.0000 C   0  0  0  0  0  0  0  0  0  0  0  0
   -0.7640    7.5314    0.0000 O   0  0  0  0  0  0  0  0  0  0  0  0
   -3.1048    6.4041    0.0000 N   0  0  0  0  0  0  0  0  0  0  0  0
   -2.4540    5.0527    0.0000 C   0  0  0  0  0  0  0  0  0  0  0  0
   -3.2990    3.8133    0.0000 C   0  0  0  0  0  0  0  0  0  0  0  0
   -2.6481    2.4619    0.0000 O   0  0  0  0  0  0  0  0  0  0  0  0
   -0.9582    4.9406    0.0000 C   0  0  0  0  0  0  0  0  0  0  0  0
   -0.1132    6.1799    0.0000 N   0  0  0  0  0  0  0  0  0  0  0  0
   -0.5684    3.7898    0.0000 O   0  0  0  0  0  0  0  0  0  0  0  0
    5.7900    6.3391    0.0000 N   0  0  0  0  0  0  0  0  0  0  0  0
    7.2806    6.5070    0.0000 C   0  0  0  0  0  0  0  0  0  0  0  0
    7.2806    8.0070    0.0000 O   0  0  0  0  0  0  0  0  0  0  0  0
  1  2  2  0
  2  3  1  0
  2  4  1  0
  4  5  1  0
  5  6  1  0
  6  7  1  0
  8  7  1  6
  8  9  1  0
  9 10  1  0
 10 11  2  0
 10 12  1  0
 12 13  1  1
 13 14  1  0
 14 15  1  0
 15 16  1  0
 16 17  1  0
 17 18  2  0
 17 19  1  0
 12 20  1  0
 20 21  1  0
 21 22  2  0
 21 23  1  0
 23 24  1  1
 24 25  1  0
 25 26  1  0
 26 27  1  0
 26 28  2  0
 23 29  1  0
 29 30  1  0
 30 31  2  0
 30 32  1  0
 32 33  1  1
 33 34  1  0
 34 35  2  0
 35 36  1  0
 36 37  2  0
 37 38  1  0
 38 39  2  0
 32 40  1  0
 40 41  1  0
 41 42  2  0
 41 43  1  0
 43 44  1  0
 44 45  1  0
 45 46  1  0
 46 47  1  0
 47 48  1  0
 48 49  1  0
 49 50  2  0
 49 51  1  0
 51 52  1  0
 52 53  2  0
 53 54  1  0
 54 55  2  0
 55 56  1  0
 55 57  1  0
 57 58  2  0
 57 59  1  0
 59 60  1  0
 60 61  1  1
 61 62  1  0
 62 63  2  0
 63 64  1  0
 64 65  2  0
 65 66  1  0
 66 67  2  0
 67 68  1  0
 68 69  2  0
 69 70  1  0
 70 71  2  0
 60 72  1  0
 72 73  2  0
 72 74  1  0
 74 75  1  0
 75 76  1  6
 76 77  1  0
 75 78  1  0
 78 79  2  0
 78 80  1  0
 80 81  1  0
 81 82  1  6
 82 83  1  0
 83 84  1  0
 83 85  2  0
 81 86  1  0
 86 87  2  0
 86 88  1  0
 88 89  1  0
 89 90  1  1
 90 91  1  0
 91 92  2  0
 92 93  1  0
 93 94  2  0
 94 95  1  0
 95 96  2  0
 96 97  1  0
 97 98  2  0
 98 99  1  0
 99100  2  0
 89101  1  0
101102  2  0
101103  1  0
103104  1  0
104105  1  6
105106  2  0
106107  1  0
107108  2  0
108109  1  0
109110  2  0
104111  1  0
111112  2  0
111113  1  0
 53114  1  0
114115  2  0
114116  1  0
116117  1  0
117118  1  0
118119  1  1
119120  2  0
119121  1  0
121122  1  0
122123  1  6
123124  1  0
124125  1  0
125126  1  0
122127  1  0
127128  2  0
127129  1  0
129130  1  0
130131  1  1
131132  1  0
132133  1  0
133134  1  0
134135  1  0
135136  2  0
135137  1  0
130138  1  0
138139  2  0
138140  1  0
140141  1  0
141142  1  6
142143  1  0
143144  2  0
144145  1  0
145146  2  0
146147  1  0
147148  2  0
141149  1  0
149150  2  0
149151  1  0
151152  1  0
152153  1  1
153154  1  0
152155  1  0
155156  1  0
155157  2  0
118158  1  0
158159  1  0
159160  2  0
159  8  1  0
 39 34  1  0
 43113  1  1
148143  1  0
 56 51  2  0
 71 62  1  0
100 91  1  0
110105  1  0
 70 65  1  0
 99 94  1  0
M  END
>  <molecule_chembl_id>  (158) 
CHEMBL4852330

>  <canonical_smiles>  (158) 
N=C(N)NCCC[C@@H]1NC(=O)[C@@H](CCCNC(=N)N)NC(=O)[C@@H](CCC(N)=O)NC(=O)[C@@H](Cc2ccccc2)NC(=O)[C@@H]2CCCCNC(=O)c3cc(cc(c3)C(=O)N[C@H](Cc3ccc4ccccc4c3)C(=O)N[C@@H](CO)C(=O)N[C@@H](CC(N)=O)C(=O)N[C@H](Cc3ccc4ccccc4c3)C(=O)N[C@@H](c3ccccc3)C(=O)N2)C(=O)NC[C@@H](C(=O)N[C@@H](CCCN)C(=O)N[C@H](CCCNC(=N)N)C(=O)N[C@@H](Cc2ccccc2)C(=O)N[C@H](CO)C(N)=O)NC1=O

>  <pchembl_value_mean>  (158) 
6.12

>  <inchi>  (158) 
InChI=1S/C108H138N30O22/c109-41-16-31-72(92(147)124-74(33-18-44-121-107(115)116)95(150)132-78(49-60-22-6-2-7-23-60)99(154)136-83(57-139)88(112)143)127-103(158)82-56-123-90(145)69-52-68-53-70(54-69)91(146)130-79(50-61-35-37-63-24-10-12-28-66(63)46-61)100(155)137-84(58-140)104(159)134-81(55-86(111)142)101(156)133-80(51-62-36-38-64-25-11-13-29-67(64)47-62)102(157)138-87(65-26-8-3-9-27-65)105(160)129-71(30-14-15-42-119-89(68)144)94(149)131-77(48-59-20-4-1-5-21-59)98(153)128-76(39-40-85(110)141)97(152)126-73(32-17-43-120-106(113)114)93(148)125-75(96(151)135-82)34-19-45-122-108(117)118/h1-13,20-29,35-38,46-47,52-54,71-84,87,139-140H,14-19,30-34,39-45,48-51,55-58,109H2,(H2,110,141)(H2,111,142)(H2,112,143)(H,119,144)(H,123,145)(H,124,147)(H,125,148)(H,126,152)(H,127,158)(H,128,153)(H,129,160)(H,130,146)(H,131,149)(H,132,150)(H,133,156)(H,134,159)(H,135,151)(H,136,154)(H,137,155)(H,138,157)(H4,113,114,120)(H4,115,116,121)(H4,117,118,122)/t71-,72-,73+,74+,75-,76+,77+,78-,79+,80+,81-,82-,83+,84-,87-/m0/s1

$$$$

     RDKit          2D

 41 45  0  0  0  0  0  0  0  0999 V2000
    3.7500   -9.0933    0.0000 C   0  0  0  0  0  0  0  0  0  0  0  0
    3.0000   -7.7942    0.0000 C   0  0  0  0  0  0  0  0  0  0  0  0
    3.7500   -6.4952    0.0000 C   0  0  0  0  0  0  0  0  0  0  0  0
    5.2500   -6.4952    0.0000 O   0  0  0  0  0  0  0  0  0  0  0  0
    3.0000   -5.1962    0.0000 N   0  0  0  0  0  0  0  0  0  0  0  0
    1.5000   -5.1962    0.0000 C   0  0  0  0  0  0  0  0  0  0  0  0
    0.7500   -3.8971    0.0000 C   0  0  0  0  0  0  0  0  0  0  0  0
    1.5000   -2.5981    0.0000 N   0  0  0  0  0  0  0  0  0  0  0  0
    0.7500   -1.2990    0.0000 C   0  0  0  0  0  0  0  0  0  0  0  0
    1.5000    0.0000    0.0000 N   0  0  0  0  0  0  0  0  0  0  0  0
    0.7500    1.2990    0.0000 C   0  0  0  0  0  0  0  0  0  0  0  0
    1.5000    2.5981    0.0000 N   0  0  0  0  0  0  0  0  0  0  0  0
    3.0000    2.5981    0.0000 C   0  0  0  0  0  0  0  0  0  0  0  0
    3.7500    3.8971    0.0000 C   0  0  0  0  0  0  0  0  0  0  0  0
    5.2500    3.8971    0.0000 C   0  0  0  0  0  0  0  0  0  0  0  0
    6.0000    2.5981    0.0000 O   0  0  0  0  0  0  0  0  0  0  0  0
    6.0000    5.1962    0.0000 N   0  0  0  0  0  0  0  0  0  0  0  0
    7.5000    5.1962    0.0000 C   0  0  0  0  0  0  0  0  0  0  0  0
    5.2500    6.4952    0.0000 C   0  0  0  0  0  0  0  0  0  0  0  0
   -0.7500    1.2990    0.0000 N   0  0  0  0  0  0  0  0  0  0  0  0
   -1.5000    0.0000    0.0000 C   0  0  0  0  0  0  0  0  0  0  0  0
   -3.0000    0.0000    0.0000 C   0  0  0  0  0  0  0  0  0  0  0  0
   -3.7500    1.2990    0.0000 F   0  0  0  0  0  0  0  0  0  0  0  0
   -3.7500   -1.2990    0.0000 C   0  0  0  0  0  0  0  0  0  0  0  0
   -5.2500   -1.2990    0.0000 C   0  0  0  0  0  0  0  0  0  0  0  0
   -6.0000    0.0000    0.0000 C   0  0  0  0  0  0  0  0  0  0  0  0
   -7.5000    0.0000    0.0000 C   0  0  0  0  0  0  0  0  0  0  0  0
   -8.2500    1.2990    0.0000 O   0  0  0  0  0  0  0  0  0  0  0  0
   -8.2500   -1.2990    0.0000 C   0  0  0  0  0  0  0  0  0  0  0  0
   -7.5000   -2.5981    0.0000 C   0  0  0  0  0  0  0  0  0  0  0  0
   -8.2500   -3.8971    0.0000 C   0  0  0  0  0  0  0  0  0  0  0  0
   -7.5000   -5.1962    0.0000 C   0  0  0  0  0  0  0  0  0  0  0  0
   -6.0000   -5.1962    0.0000 C   0  0  0  0  0  0  0  0  0  0  0  0
   -5.2500   -3.8971    0.0000 C   0  0  0  0  0  0  0  0  0  0  0  0
   -6.0000   -2.5981    0.0000 C   0  0  0  0  0  0  0  0  0  0  0  0
   -3.0000   -2.5981    0.0000 C   0  0  0  0  0  0  0  0  0  0  0  0
   -3.7500   -3.8971    0.0000 Cl  0  0  0  0  0  0  0  0  0  0  0  0
   -1.5000   -2.5981    0.0000 C   0  0  0  0  0  0  0  0  0  0  0  0
   -0.7500   -1.2990    0.0000 C   0  0  0  0  0  0  0  0  0  0  0  0
    3.0000   -2.5981    0.0000 C   0  0  0  0  0  0  0  0  0  0  0  0
    3.7500   -3.8971    0.0000 C   0  0  0  0  0  0  0  0  0  0  0  0
  1  2  2  0
  2  3  1  0
  3  4  2  0
  3  5  1  0
  5  6  1  0
  6  7  1  0
  7  8  1  0
  8  9  1  0
  9 10  2  0
 10 11  1  0
 11 12  1  0
 12 13  1  0
 13 14  1  0
 14 15  1  0
 15 16  2  0
 15 17  1  0
 17 18  1  0
 17 19  1  0
 11 20  2  0
 20 21  1  0
 21 22  2  0
 22 23  1  0
 22 24  1  0
 24 25  1  0
 25 26  2  0
 26 27  1  0
 27 28  1  0
 27 29  2  0
 29 30  1  0
 30 31  2  0
 31 32  1  0
 32 33  2  0
 33 34  1  0
 34 35  2  0
 24 36  2  0
 36 37  1  0
 36 38  1  0
 38 39  2  0
  8 40  1  0
 40 41  1  0
 41  5  1  0
 39  9  1  0
 39 21  1  0
 35 25  1  0
 35 30  1  0
M  END
>  <molecule_chembl_id>  (159) 
CHEMBL5178832

>  <canonical_smiles>  (159) 
C=CC(=O)N1CCN(c2nc(NCCC(=O)N(C)C)nc3c(F)c(-c4cc(O)cc5ccccc45)c(Cl)cc23)CC1

>  <pchembl_value_mean>  (159) 
6.14

>  <inchi>  (159) 
InChI=1S/C30H30ClFN6O3/c1-4-24(40)37-11-13-38(14-12-37)29-22-17-23(31)26(21-16-19(39)15-18-7-5-6-8-20(18)21)27(32)28(22)34-30(35-29)33-10-9-25(41)36(2)3/h4-8,15-17,39H,1,9-14H2,2-3H3,(H,33,34,35)

$$$$

     RDKit          2D

156165  0  0  0  0  0  0  0  0999 V2000
   12.4989   -5.5993    0.0000 C   0  0  0  0  0  0  0  0  0  0  0  0
   11.4696   -4.5083    0.0000 C   0  0  0  0  0  0  0  0  0  0  0  0
   10.2664   -5.4040    0.0000 N   0  0  0  0  0  0  0  0  0  0  0  0
    8.8891   -5.9981    0.0000 C   0  0  0  0  0  0  0  0  0  0  0  0
    9.3193   -7.4351    0.0000 O   0  0  0  0  0  0  0  0  0  0  0  0
    7.4118   -6.2586    0.0000 C   0  0  0  0  0  0  0  0  0  0  0  0
    7.4991   -7.7561    0.0000 C   0  0  0  0  0  0  0  0  0  0  0  0
    6.2458   -8.5803    0.0000 O   0  0  0  0  0  0  0  0  0  0  0  0
    5.9144   -6.1714    0.0000 N   0  0  0  0  0  0  0  0  0  0  0  0
    4.4774   -5.7412    0.0000 C   0  0  0  0  0  0  0  0  0  0  0  0
    3.8833   -7.1185    0.0000 O   0  0  0  0  0  0  0  0  0  0  0  0
    3.1784   -4.9912    0.0000 C   0  0  0  0  0  0  0  0  0  0  0  0
    2.2826   -6.1944    0.0000 C   0  0  0  0  0  0  0  0  0  0  0  0
    0.7928   -6.0202    0.0000 C   0  0  0  0  0  0  0  0  0  0  0  0
    0.1986   -4.6429    0.0000 C   0  0  0  0  0  0  0  0  0  0  0  0
   -1.2912   -4.4688    0.0000 C   0  0  0  0  0  0  0  0  0  0  0  0
   -2.1870   -5.6719    0.0000 C   0  0  0  0  0  0  0  0  0  0  0  0
   -3.6768   -5.4978    0.0000 C   0  0  0  0  0  0  0  0  0  0  0  0
   -4.5726   -6.7010    0.0000 C   0  0  0  0  0  0  0  0  0  0  0  0
   -3.9784   -8.0783    0.0000 C   0  0  0  0  0  0  0  0  0  0  0  0
   -2.4886   -8.2524    0.0000 C   0  0  0  0  0  0  0  0  0  0  0  0
   -1.5928   -7.0493    0.0000 C   0  0  0  0  0  0  0  0  0  0  0  0
   -0.1030   -7.2234    0.0000 C   0  0  0  0  0  0  0  0  0  0  0  0
    2.0873   -3.9618    0.0000 N   0  0  0  0  0  0  0  0  0  0  0  0
    1.2630   -2.7086    0.0000 C   0  0  0  0  0  0  0  0  0  0  0  0
   -0.0774   -3.3818    0.0000 O   0  0  0  0  0  0  0  0  0  0  0  0
    0.7500   -1.2990    0.0000 C   0  0  0  0  0  0  0  0  0  0  0  0
    1.5000    0.0000    0.0000 C   0  0  0  0  0  0  0  0  0  0  0  0
    0.7500    1.2990    0.0000 C   0  0  0  0  0  0  0  0  0  0  0  0
   -0.7500    1.2990    0.0000 C   0  0  0  0  0  0  0  0  0  0  0  0
   -1.5000    0.0000    0.0000 C   0  0  0  0  0  0  0  0  0  0  0  0
   -0.7500   -1.2990    0.0000 C   0  0  0  0  0  0  0  0  0  0  0  0
   -2.0393    1.2548    0.0000 C   0  0  0  0  0  0  0  0  0  0  0  0
   -0.8570    2.1779    0.0000 O   0  0  0  0  0  0  0  0  0  0  0  0
   -3.0890    2.3263    0.0000 N   0  0  0  0  0  0  0  0  0  0  0  0
   -3.8739    3.6045    0.0000 C   0  0  0  0  0  0  0  0  0  0  0  0
   -4.3547    5.0254    0.0000 C   0  0  0  0  0  0  0  0  0  0  0  0
   -5.8205    4.7066    0.0000 C   0  0  0  0  0  0  0  0  0  0  0  0
   -6.2773    3.2779    0.0000 O   0  0  0  0  0  0  0  0  0  0  0  0
   -6.8294    5.8166    0.0000 N   0  0  0  0  0  0  0  0  0  0  0  0
   -8.2951    5.4979    0.0000 C   0  0  0  0  0  0  0  0  0  0  0  0
   -9.3040    6.6079    0.0000 C   0  0  0  0  0  0  0  0  0  0  0  0
  -10.7698    6.2892    0.0000 C   0  0  0  0  0  0  0  0  0  0  0  0
  -11.7787    7.3992    0.0000 C   0  0  0  0  0  0  0  0  0  0  0  0
  -13.2444    7.0805    0.0000 N   0  0  0  0  0  0  0  0  0  0  0  0
   -8.7520    4.0692    0.0000 C   0  0  0  0  0  0  0  0  0  0  0  0
   -7.7431    2.9592    0.0000 O   0  0  0  0  0  0  0  0  0  0  0  0
  -10.2177    3.7505    0.0000 N   0  0  0  0  0  0  0  0  0  0  0  0
  -10.6746    2.3217    0.0000 C   0  0  0  0  0  0  0  0  0  0  0  0
  -12.1403    2.0030    0.0000 C   0  0  0  0  0  0  0  0  0  0  0  0
  -12.5972    0.5743    0.0000 C   0  0  0  0  0  0  0  0  0  0  0  0
  -14.0629    0.2556    0.0000 C   0  0  0  0  0  0  0  0  0  0  0  0
  -14.5198   -1.1732    0.0000 N   0  0  0  0  0  0  0  0  0  0  0  0
  -15.9855   -1.4919    0.0000 C   0  0  0  0  0  0  0  0  0  0  0  0
  -16.9944   -0.3819    0.0000 N   0  0  0  0  0  0  0  0  0  0  0  0
  -16.4424   -2.9206    0.0000 N   0  0  0  0  0  0  0  0  0  0  0  0
   -9.6657    1.2117    0.0000 C   0  0  0  0  0  0  0  0  0  0  0  0
   -8.1999    1.5304    0.0000 O   0  0  0  0  0  0  0  0  0  0  0  0
  -10.1225   -0.2170    0.0000 N   0  0  0  0  0  0  0  0  0  0  0  0
   -9.1137   -1.3270    0.0000 C   0  0  0  0  0  0  0  0  0  0  0  0
   -9.5705   -2.7558    0.0000 C   0  0  0  0  0  0  0  0  0  0  0  0
   -8.5616   -3.8658    0.0000 C   0  0  0  0  0  0  0  0  0  0  0  0
   -9.0185   -5.2945    0.0000 C   0  0  0  0  0  0  0  0  0  0  0  0
   -8.0096   -6.4045    0.0000 C   0  0  0  0  0  0  0  0  0  0  0  0
   -6.5438   -6.0858    0.0000 C   0  0  0  0  0  0  0  0  0  0  0  0
   -6.0870   -4.6571    0.0000 C   0  0  0  0  0  0  0  0  0  0  0  0
   -7.0959   -3.5471    0.0000 C   0  0  0  0  0  0  0  0  0  0  0  0
   -7.6479   -1.0083    0.0000 C   0  0  0  0  0  0  0  0  0  0  0  0
   -7.1911    0.4204    0.0000 O   0  0  0  0  0  0  0  0  0  0  0  0
   -6.6390   -2.1183    0.0000 N   0  0  0  0  0  0  0  0  0  0  0  0
   -5.1733   -1.7996    0.0000 C   0  0  0  0  0  0  0  0  0  0  0  0
   -4.1644   -2.9096    0.0000 C   0  0  0  0  0  0  0  0  0  0  0  0
   -4.7164   -0.3709    0.0000 C   0  0  0  0  0  0  0  0  0  0  0  0
   -3.2507   -0.0521    0.0000 N   0  0  0  0  0  0  0  0  0  0  0  0
   -5.7253    0.7391    0.0000 O   0  0  0  0  0  0  0  0  0  0  0  0
   -4.5073    6.5176    0.0000 N   0  0  0  0  0  0  0  0  0  0  0  0
   -4.3241    8.0063    0.0000 C   0  0  0  0  0  0  0  0  0  0  0  0
   -5.7830    8.3551    0.0000 O   0  0  0  0  0  0  0  0  0  0  0  0
   -3.8141    9.4170    0.0000 C   0  0  0  0  0  0  0  0  0  0  0  0
   -5.1588   10.0817    0.0000 C   0  0  0  0  0  0  0  0  0  0  0  0
   -5.2555   11.5786    0.0000 C   0  0  0  0  0  0  0  0  0  0  0  0
   -6.6002   12.2433    0.0000 C   0  0  0  0  0  0  0  0  0  0  0  0
   -6.6969   13.7401    0.0000 N   0  0  0  0  0  0  0  0  0  0  0  0
   -8.0416   14.4048    0.0000 C   0  0  0  0  0  0  0  0  0  0  0  0
   -9.2896   13.5726    0.0000 N   0  0  0  0  0  0  0  0  0  0  0  0
   -8.1383   15.9017    0.0000 N   0  0  0  0  0  0  0  0  0  0  0  0
   -3.0030   10.6788    0.0000 N   0  0  0  0  0  0  0  0  0  0  0  0
   -1.9315   11.7285    0.0000 C   0  0  0  0  0  0  0  0  0  0  0  0
   -2.8547   12.9108    0.0000 O   0  0  0  0  0  0  0  0  0  0  0  0
   -0.6533   12.5134    0.0000 C   0  0  0  0  0  0  0  0  0  0  0  0
   -1.2902   13.8715    0.0000 C   0  0  0  0  0  0  0  0  0  0  0  0
   -0.4325   15.1021    0.0000 C   0  0  0  0  0  0  0  0  0  0  0  0
   -1.0694   16.4602    0.0000 C   0  0  0  0  0  0  0  0  0  0  0  0
   -0.2117   17.6908    0.0000 N   0  0  0  0  0  0  0  0  0  0  0  0
   -0.8486   19.0489    0.0000 C   0  0  0  0  0  0  0  0  0  0  0  0
   -2.3432   19.1763    0.0000 N   0  0  0  0  0  0  0  0  0  0  0  0
    0.0091   20.2795    0.0000 N   0  0  0  0  0  0  0  0  0  0  0  0
    0.7675   12.9943    0.0000 N   0  0  0  0  0  0  0  0  0  0  0  0
    2.2598   13.1469    0.0000 C   0  0  0  0  0  0  0  0  0  0  0  0
    2.2752   14.6468    0.0000 O   0  0  0  0  0  0  0  0  0  0  0  0
    3.7485   12.9636    0.0000 C   0  0  0  0  0  0  0  0  0  0  0  0
    4.0973   14.4225    0.0000 C   0  0  0  0  0  0  0  0  0  0  0  0
    5.5352   14.8498    0.0000 C   0  0  0  0  0  0  0  0  0  0  0  0
    5.8840   16.3087    0.0000 C   0  0  0  0  0  0  0  0  0  0  0  0
    7.3218   16.7361    0.0000 N   0  0  0  0  0  0  0  0  0  0  0  0
    4.7949   17.3402    0.0000 O   0  0  0  0  0  0  0  0  0  0  0  0
    5.1592   12.4536    0.0000 N   0  0  0  0  0  0  0  0  0  0  0  0
    6.4210   11.6426    0.0000 C   0  0  0  0  0  0  0  0  0  0  0  0
    7.3682   12.8056    0.0000 O   0  0  0  0  0  0  0  0  0  0  0  0
    7.4707   10.5711    0.0000 C   0  0  0  0  0  0  0  0  0  0  0  0
    8.6530   11.4942    0.0000 C   0  0  0  0  0  0  0  0  0  0  0  0
   10.0436   10.9318    0.0000 C   0  0  0  0  0  0  0  0  0  0  0  0
   10.2519    9.4464    0.0000 C   0  0  0  0  0  0  0  0  0  0  0  0
   11.6425    8.8840    0.0000 C   0  0  0  0  0  0  0  0  0  0  0  0
   12.8248    9.8071    0.0000 C   0  0  0  0  0  0  0  0  0  0  0  0
   12.6165   11.2926    0.0000 C   0  0  0  0  0  0  0  0  0  0  0  0
   11.2259   11.8549    0.0000 C   0  0  0  0  0  0  0  0  0  0  0  0
    8.2556    9.2928    0.0000 N   0  0  0  0  0  0  0  0  0  0  0  0
    8.7364    7.8720    0.0000 C   0  0  0  0  0  0  0  0  0  0  0  0
   10.2022    8.1907    0.0000 O   0  0  0  0  0  0  0  0  0  0  0  0
    8.8891    6.3798    0.0000 C   0  0  0  0  0  0  0  0  0  0  0  0
    7.4118    6.6402    0.0000 C   0  0  0  0  0  0  0  0  0  0  0  0
    5.9144    6.5530    0.0000 C   0  0  0  0  0  0  0  0  0  0  0  0
    4.4774    6.1228    0.0000 C   0  0  0  0  0  0  0  0  0  0  0  0
    3.1784    5.3728    0.0000 C   0  0  0  0  0  0  0  0  0  0  0  0
    2.0873    4.3434    0.0000 N   0  0  0  0  0  0  0  0  0  0  0  0
    1.2630    3.0902    0.0000 C   0  0  0  0  0  0  0  0  0  0  0  0
   -0.0774    3.7634    0.0000 O   0  0  0  0  0  0  0  0  0  0  0  0
   10.2664    5.7856    0.0000 N   0  0  0  0  0  0  0  0  0  0  0  0
   11.4696    4.8899    0.0000 C   0  0  0  0  0  0  0  0  0  0  0  0
   12.4989    5.9810    0.0000 O   0  0  0  0  0  0  0  0  0  0  0  0
   12.4337    3.7408    0.0000 C   0  0  0  0  0  0  0  0  0  0  0  0
   13.6870    4.5651    0.0000 C   0  0  0  0  0  0  0  0  0  0  0  0
   15.0274    3.8919    0.0000 C   0  0  0  0  0  0  0  0  0  0  0  0
   16.2807    4.7162    0.0000 C   0  0  0  0  0  0  0  0  0  0  0  0
   16.1934    6.2136    0.0000 C   0  0  0  0  0  0  0  0  0  0  0  0
   14.8530    6.8868    0.0000 C   0  0  0  0  0  0  0  0  0  0  0  0
   13.5998    6.0626    0.0000 C   0  0  0  0  0  0  0  0  0  0  0  0
   13.1069    2.4004    0.0000 N   0  0  0  0  0  0  0  0  0  0  0  0
   13.4529    0.9408    0.0000 C   0  0  0  0  0  0  0  0  0  0  0  0
   14.9427    1.1150    0.0000 O   0  0  0  0  0  0  0  0  0  0  0  0
   13.4529   -0.5592    0.0000 C   0  0  0  0  0  0  0  0  0  0  0  0
   14.9427   -0.7333    0.0000 C   0  0  0  0  0  0  0  0  0  0  0  0
   15.5368   -2.1106    0.0000 C   0  0  0  0  0  0  0  0  0  0  0  0
   14.6411   -3.3138    0.0000 C   0  0  0  0  0  0  0  0  0  0  0  0
   15.2352   -4.6912    0.0000 C   0  0  0  0  0  0  0  0  0  0  0  0
   16.7251   -4.8653    0.0000 C   0  0  0  0  0  0  0  0  0  0  0  0
   17.3192   -6.2426    0.0000 C   0  0  0  0  0  0  0  0  0  0  0  0
   18.8091   -6.4168    0.0000 C   0  0  0  0  0  0  0  0  0  0  0  0
   19.7048   -5.2136    0.0000 C   0  0  0  0  0  0  0  0  0  0  0  0
   19.1107   -3.8362    0.0000 C   0  0  0  0  0  0  0  0  0  0  0  0
   17.6208   -3.6621    0.0000 C   0  0  0  0  0  0  0  0  0  0  0  0
   17.0267   -2.2848    0.0000 C   0  0  0  0  0  0  0  0  0  0  0  0
   13.1069   -2.0187    0.0000 N   0  0  0  0  0  0  0  0  0  0  0  0
   12.4337   -3.3592    0.0000 C   0  0  0  0  0  0  0  0  0  0  0  0
   13.6870   -4.1835    0.0000 O   0  0  0  0  0  0  0  0  0  0  0  0
  2  1  1  6
  2  3  1  0
  3  4  1  0
  4  5  2  0
  4  6  1  0
  6  7  1  6
  7  8  1  0
  6  9  1  0
  9 10  1  0
 10 11  2  0
 10 12  1  0
 12 13  1  1
 13 14  1  0
 14 15  2  0
 15 16  1  0
 16 17  2  0
 17 18  1  0
 18 19  2  0
 19 20  1  0
 20 21  2  0
 21 22  1  0
 22 23  2  0
 12 24  1  0
 24 25  1  0
 25 26  2  0
 25 27  1  0
 27 28  2  0
 28 29  1  0
 29 30  2  0
 30 31  1  0
 31 32  2  0
 31 33  1  0
 33 34  2  0
 33 35  1  0
 35 36  1  0
 36 37  1  0
 37 38  1  1
 38 39  2  0
 38 40  1  0
 40 41  1  0
 41 42  1  6
 42 43  1  0
 43 44  1  0
 44 45  1  0
 41 46  1  0
 46 47  2  0
 46 48  1  0
 48 49  1  0
 49 50  1  1
 50 51  1  0
 51 52  1  0
 52 53  1  0
 53 54  1  0
 54 55  2  0
 54 56  1  0
 49 57  1  0
 57 58  2  0
 57 59  1  0
 59 60  1  0
 60 61  1  6
 61 62  1  0
 62 63  2  0
 63 64  1  0
 64 65  2  0
 65 66  1  0
 66 67  2  0
 60 68  1  0
 68 69  2  0
 68 70  1  0
 70 71  1  0
 71 72  1  1
 71 73  1  0
 73 74  1  0
 73 75  2  0
 37 76  1  0
 76 77  1  0
 77 78  2  0
 77 79  1  0
 79 80  1  6
 80 81  1  0
 81 82  1  0
 82 83  1  0
 83 84  1  0
 84 85  2  0
 84 86  1  0
 79 87  1  0
 87 88  1  0
 88 89  2  0
 88 90  1  0
 90 91  1  1
 91 92  1  0
 92 93  1  0
 93 94  1  0
 94 95  1  0
 95 96  2  0
 95 97  1  0
 90 98  1  0
 98 99  1  0
 99100  2  0
 99101  1  0
101102  1  1
102103  1  0
103104  1  0
104105  1  0
104106  2  0
101107  1  0
107108  1  0
108109  2  0
108110  1  0
110111  1  1
111112  1  0
112113  2  0
113114  1  0
114115  2  0
115116  1  0
116117  2  0
110118  1  0
118119  1  0
119120  2  0
119121  1  0
121122  1  0
122123  1  0
123124  1  0
124125  1  0
125126  1  0
126127  1  0
127128  2  0
121129  1  1
129130  1  0
130131  2  0
130132  1  0
132133  1  6
133134  2  0
134135  1  0
135136  2  0
136137  1  0
137138  2  0
132139  1  0
139140  1  0
140141  2  0
140142  1  0
142143  1  1
143144  1  0
144145  2  0
145146  1  0
146147  2  0
147148  1  0
148149  2  0
149150  1  0
150151  2  0
151152  1  0
152153  2  0
142154  1  0
154155  1  0
155156  2  0
155  2  1  0
 23 14  1  0
 32 27  1  0
 67 62  1  0
117112  1  0
138133  1  0
153144  1  0
 22 17  1  0
127 29  1  0
152147  1  0
M  END
>  <molecule_chembl_id>  (160) 
CHEMBL4872844

>  <canonical_smiles>  (160) 
C[C@@H]1NC(=O)[C@H](CO)NC(=O)[C@@H](Cc2ccc3ccccc3c2)NC(=O)c2cc3cc(c2)C(=O)NC[C@@H](C(=O)N[C@@H](CCCN)C(=O)N[C@H](CCCNC(=N)N)C(=O)N[C@@H](Cc2ccccc2)C(=O)N[C@H](C)C(N)=O)NC(=O)[C@H](CCCNC(=N)N)NC(=O)[C@@H](CCCNC(=N)N)NC(=O)[C@@H](CCC(N)=O)NC(=O)[C@@H](Cc2ccccc2)NC(=O)[C@H](CCCCNC3=O)NC(=O)[C@H](c2ccccc2)NC(=O)[C@@H](Cc2ccc3ccccc3c2)NC1=O

>  <pchembl_value_mean>  (160) 
6.15

>  <inchi>  (160) 
InChI=1S/C107H137N29O20/c1-59(87(110)139)122-98(150)79(50-61-22-6-3-7-23-61)132-95(147)76(35-20-46-119-106(113)114)124-92(144)74(33-18-43-108)127-102(154)83-57-121-90(142)71-54-70-55-72(56-71)91(143)131-81(52-63-37-39-65-26-12-14-30-68(65)48-63)100(152)135-84(58-137)103(155)123-60(2)88(140)130-82(53-64-38-40-66-27-13-15-31-69(66)49-64)101(153)136-86(67-28-10-5-11-29-67)104(156)129-73(32-16-17-44-117-89(70)141)94(146)133-80(51-62-24-8-4-9-25-62)99(151)128-78(41-42-85(109)138)97(149)126-75(34-19-45-118-105(111)112)93(145)125-77(96(148)134-83)36-21-47-120-107(115)116/h3-15,22-31,37-40,48-49,54-56,59-60,73-84,86,137H,16-21,32-36,41-47,50-53,57-58,108H2,1-2H3,(H2,109,138)(H2,110,139)(H,117,141)(H,121,142)(H,122,150)(H,123,155)(H,124,144)(H,125,145)(H,126,149)(H,127,154)(H,128,151)(H,129,156)(H,130,140)(H,131,143)(H,132,147)(H,133,146)(H,134,148)(H,135,152)(H,136,153)(H4,111,112,118)(H4,113,114,119)(H4,115,116,120)/t59-,60+,73+,74+,75-,76-,77+,78-,79+,80-,81-,82-,83+,84+,86+/m1/s1

$$$$

     RDKit          2D

160169  0  0  0  0  0  0  0  0999 V2000
   10.7457  -10.5769    0.0000 C   0  0  0  0  0  0  0  0  0  0  0  0
    9.2499  -10.6890    0.0000 C   0  0  0  0  0  0  0  0  0  0  0  0
    8.5991  -12.0404    0.0000 N   0  0  0  0  0  0  0  0  0  0  0  0
    7.1033  -12.1525    0.0000 C   0  0  0  0  0  0  0  0  0  0  0  0
    6.2583  -10.9132    0.0000 O   0  0  0  0  0  0  0  0  0  0  0  0
    6.4525  -13.5040    0.0000 C   0  0  0  0  0  0  0  0  0  0  0  0
    7.2975  -14.7434    0.0000 C   0  0  0  0  0  0  0  0  0  0  0  0
    8.7933  -14.6313    0.0000 C   0  0  0  0  0  0  0  0  0  0  0  0
    9.6382  -15.8706    0.0000 C   0  0  0  0  0  0  0  0  0  0  0  0
   11.1341  -15.7585    0.0000 C   0  0  0  0  0  0  0  0  0  0  0  0
   11.7849  -14.4071    0.0000 C   0  0  0  0  0  0  0  0  0  0  0  0
   10.9399  -13.1677    0.0000 C   0  0  0  0  0  0  0  0  0  0  0  0
    9.4441  -13.2798    0.0000 C   0  0  0  0  0  0  0  0  0  0  0  0
    4.9567  -13.6161    0.0000 N   0  0  0  0  0  0  0  0  0  0  0  0
    4.1117  -12.3767    0.0000 C   0  0  0  0  0  0  0  0  0  0  0  0
    4.7625  -11.0253    0.0000 O   0  0  0  0  0  0  0  0  0  0  0  0
    2.6159  -12.4888    0.0000 C   0  0  0  0  0  0  0  0  0  0  0  0
    1.9651  -13.8403    0.0000 C   0  0  0  0  0  0  0  0  0  0  0  0
    2.8100  -15.0796    0.0000 C   0  0  0  0  0  0  0  0  0  0  0  0
    2.1592  -16.4311    0.0000 C   0  0  0  0  0  0  0  0  0  0  0  0
    3.0042  -17.6705    0.0000 N   0  0  0  0  0  0  0  0  0  0  0  0
    2.3534  -19.0219    0.0000 C   0  0  0  0  0  0  0  0  0  0  0  0
    0.8576  -19.1340    0.0000 N   0  0  0  0  0  0  0  0  0  0  0  0
    3.1984  -20.2613    0.0000 N   0  0  0  0  0  0  0  0  0  0  0  0
    1.7709  -11.2495    0.0000 N   0  0  0  0  0  0  0  0  0  0  0  0
    2.4217   -9.8980    0.0000 C   0  0  0  0  0  0  0  0  0  0  0  0
    3.9175   -9.7859    0.0000 O   0  0  0  0  0  0  0  0  0  0  0  0
    1.5768   -8.6587    0.0000 C   0  0  0  0  0  0  0  0  0  0  0  0
    0.0810   -8.7708    0.0000 C   0  0  0  0  0  0  0  0  0  0  0  0
   -0.5699  -10.1222    0.0000 C   0  0  0  0  0  0  0  0  0  0  0  0
   -2.0657  -10.2343    0.0000 C   0  0  0  0  0  0  0  0  0  0  0  0
   -2.7165  -11.5858    0.0000 N   0  0  0  0  0  0  0  0  0  0  0  0
    2.2276   -7.3072    0.0000 N   0  0  0  0  0  0  0  0  0  0  0  0
    3.7234   -7.1951    0.0000 C   0  0  0  0  0  0  0  0  0  0  0  0
    4.5684   -8.4345    0.0000 O   0  0  0  0  0  0  0  0  0  0  0  0
    4.3742   -5.8437    0.0000 C   0  0  0  0  0  0  0  0  0  0  0  0
    3.1041   -5.0456    0.0000 C   0  0  0  0  0  0  0  0  0  0  0  0
    2.0435   -3.9849    0.0000 N   0  0  0  0  0  0  0  0  0  0  0  0
    1.2454   -2.7149    0.0000 C   0  0  0  0  0  0  0  0  0  0  0  0
   -0.1060   -3.3657    0.0000 O   0  0  0  0  0  0  0  0  0  0  0  0
    0.7500   -1.2990    0.0000 C   0  0  0  0  0  0  0  0  0  0  0  0
    1.5000    0.0000    0.0000 C   0  0  0  0  0  0  0  0  0  0  0  0
    0.7500    1.2990    0.0000 C   0  0  0  0  0  0  0  0  0  0  0  0
   -0.7500    1.2990    0.0000 C   0  0  0  0  0  0  0  0  0  0  0  0
   -1.5000    0.0000    0.0000 C   0  0  0  0  0  0  0  0  0  0  0  0
   -0.7500   -1.2990    0.0000 C   0  0  0  0  0  0  0  0  0  0  0  0
   -2.7514    0.8271    0.0000 C   0  0  0  0  0  0  0  0  0  0  0  0
   -3.7181   -0.3198    0.0000 O   0  0  0  0  0  0  0  0  0  0  0  0
   -3.7782    1.9205    0.0000 N   0  0  0  0  0  0  0  0  0  0  0  0
   -4.5253    3.2212    0.0000 C   0  0  0  0  0  0  0  0  0  0  0  0
   -5.9040    2.6302    0.0000 C   0  0  0  0  0  0  0  0  0  0  0  0
   -6.0815    1.1408    0.0000 C   0  0  0  0  0  0  0  0  0  0  0  0
   -4.8803    0.2423    0.0000 C   0  0  0  0  0  0  0  0  0  0  0  0
   -5.0578   -1.2471    0.0000 C   0  0  0  0  0  0  0  0  0  0  0  0
   -6.4365   -1.8381    0.0000 C   0  0  0  0  0  0  0  0  0  0  0  0
   -6.6140   -3.3276    0.0000 C   0  0  0  0  0  0  0  0  0  0  0  0
   -7.9927   -3.9186    0.0000 C   0  0  0  0  0  0  0  0  0  0  0  0
   -9.1939   -3.0201    0.0000 C   0  0  0  0  0  0  0  0  0  0  0  0
   -9.0163   -1.5307    0.0000 C   0  0  0  0  0  0  0  0  0  0  0  0
   -7.6377   -0.9397    0.0000 C   0  0  0  0  0  0  0  0  0  0  0  0
   -7.4602    0.5498    0.0000 C   0  0  0  0  0  0  0  0  0  0  0  0
   -4.9522    4.6592    0.0000 C   0  0  0  0  0  0  0  0  0  0  0  0
   -6.4300    4.4021    0.0000 O   0  0  0  0  0  0  0  0  0  0  0  0
   -5.0361    6.1568    0.0000 N   0  0  0  0  0  0  0  0  0  0  0  0
   -4.7722    7.6335    0.0000 C   0  0  0  0  0  0  0  0  0  0  0  0
   -6.2082    8.0669    0.0000 C   0  0  0  0  0  0  0  0  0  0  0  0
   -6.5509    9.5273    0.0000 O   0  0  0  0  0  0  0  0  0  0  0  0
   -4.1750    9.0094    0.0000 C   0  0  0  0  0  0  0  0  0  0  0  0
   -5.4723    9.7624    0.0000 O   0  0  0  0  0  0  0  0  0  0  0  0
   -3.2765   10.2106    0.0000 N   0  0  0  0  0  0  0  0  0  0  0  0
   -2.1253   11.1722    0.0000 C   0  0  0  0  0  0  0  0  0  0  0  0
   -2.9467   12.4273    0.0000 C   0  0  0  0  0  0  0  0  0  0  0  0
   -4.4444   12.3434    0.0000 C   0  0  0  0  0  0  0  0  0  0  0  0
   -5.2658   13.5985    0.0000 N   0  0  0  0  0  0  0  0  0  0  0  0
   -5.1206   11.0045    0.0000 O   0  0  0  0  0  0  0  0  0  0  0  0
   -0.7833   11.8423    0.0000 C   0  0  0  0  0  0  0  0  0  0  0  0
   -1.2931   13.2530    0.0000 O   0  0  0  0  0  0  0  0  0  0  0  0
    0.6770   12.1849    0.0000 N   0  0  0  0  0  0  0  0  0  0  0  0
    2.1770   12.1815    0.0000 C   0  0  0  0  0  0  0  0  0  0  0  0
    2.3546   13.6710    0.0000 C   0  0  0  0  0  0  0  0  0  0  0  0
    1.1534   14.5694    0.0000 C   0  0  0  0  0  0  0  0  0  0  0  0
   -0.2253   13.9785    0.0000 C   0  0  0  0  0  0  0  0  0  0  0  0
   -1.4264   14.8769    0.0000 C   0  0  0  0  0  0  0  0  0  0  0  0
   -1.2489   16.3664    0.0000 C   0  0  0  0  0  0  0  0  0  0  0  0
   -2.4501   17.2648    0.0000 C   0  0  0  0  0  0  0  0  0  0  0  0
   -2.2725   18.7543    0.0000 C   0  0  0  0  0  0  0  0  0  0  0  0
   -0.8939   19.3453    0.0000 C   0  0  0  0  0  0  0  0  0  0  0  0
    0.3073   18.4468    0.0000 C   0  0  0  0  0  0  0  0  0  0  0  0
    0.1298   16.9574    0.0000 C   0  0  0  0  0  0  0  0  0  0  0  0
    1.3309   16.0589    0.0000 C   0  0  0  0  0  0  0  0  0  0  0  0
    3.6358   11.8323    0.0000 C   0  0  0  0  0  0  0  0  0  0  0  0
    4.1520   13.2407    0.0000 O   0  0  0  0  0  0  0  0  0  0  0  0
    4.9747   11.1561    0.0000 N   0  0  0  0  0  0  0  0  0  0  0  0
    6.1216   10.1893    0.0000 C   0  0  0  0  0  0  0  0  0  0  0  0
    7.2150   11.2162    0.0000 C   0  0  0  0  0  0  0  0  0  0  0  0
    8.6510   10.7827    0.0000 C   0  0  0  0  0  0  0  0  0  0  0  0
    9.7444   11.8096    0.0000 C   0  0  0  0  0  0  0  0  0  0  0  0
    9.4018   13.2699    0.0000 C   0  0  0  0  0  0  0  0  0  0  0  0
    7.9658   13.7034    0.0000 C   0  0  0  0  0  0  0  0  0  0  0  0
    6.8724   12.6765    0.0000 C   0  0  0  0  0  0  0  0  0  0  0  0
    7.0146    8.9841    0.0000 C   0  0  0  0  0  0  0  0  0  0  0  0
    8.3154    9.7311    0.0000 O   0  0  0  0  0  0  0  0  0  0  0  0
    7.6056    7.6054    0.0000 N   0  0  0  0  0  0  0  0  0  0  0  0
    8.7712    6.7221    0.0000 C   0  0  0  0  0  0  0  0  0  0  0  0
    7.2806    6.1901    0.0000 C   0  0  0  0  0  0  0  0  0  0  0  0
    5.9458    6.0397    0.0000 C   0  0  0  0  0  0  0  0  0  0  0  0
    4.6779    5.5960    0.0000 C   0  0  0  0  0  0  0  0  0  0  0  0
    3.5406    4.8814    0.0000 C   0  0  0  0  0  0  0  0  0  0  0  0
    2.5907    3.9316    0.0000 N   0  0  0  0  0  0  0  0  0  0  0  0
    1.5931    2.4904    0.0000 C   0  0  0  0  0  0  0  0  0  0  0  0
   -0.1060    3.7487    0.0000 O   0  0  0  0  0  0  0  0  0  0  0  0
   10.1870    6.2267    0.0000 C   0  0  0  0  0  0  0  0  0  0  0  0
   10.8378    7.5782    0.0000 O   0  0  0  0  0  0  0  0  0  0  0  0
   11.4571    5.4287    0.0000 N   0  0  0  0  0  0  0  0  0  0  0  0
   12.5177    4.3680    0.0000 C   0  0  0  0  0  0  0  0  0  0  0  0
   13.6905    5.3032    0.0000 C   0  0  0  0  0  0  0  0  0  0  0  0
   15.0868    4.7552    0.0000 C   0  0  0  0  0  0  0  0  0  0  0  0
   15.3104    3.2720    0.0000 C   0  0  0  0  0  0  0  0  0  0  0  0
   16.7067    2.7240    0.0000 C   0  0  0  0  0  0  0  0  0  0  0  0
   17.8794    3.6592    0.0000 C   0  0  0  0  0  0  0  0  0  0  0  0
   17.6559    5.1425    0.0000 C   0  0  0  0  0  0  0  0  0  0  0  0
   18.8286    6.0777    0.0000 Cl  0  0  0  0  0  0  0  0  0  0  0  0
   16.2596    5.6905    0.0000 C   0  0  0  0  0  0  0  0  0  0  0  0
   13.3158    3.0979    0.0000 C   0  0  0  0  0  0  0  0  0  0  0  0
   14.6672    3.7487    0.0000 O   0  0  0  0  0  0  0  0  0  0  0  0
   13.8112    1.6821    0.0000 N   0  0  0  0  0  0  0  0  0  0  0  0
   13.9792    0.1915    0.0000 C   0  0  0  0  0  0  0  0  0  0  0  0
   15.4792    0.1915    0.0000 C   0  0  0  0  0  0  0  0  0  0  0  0
   16.2292   -1.1075    0.0000 C   0  0  0  0  0  0  0  0  0  0  0  0
   17.7292   -1.1075    0.0000 C   0  0  0  0  0  0  0  0  0  0  0  0
   18.4792   -2.4065    0.0000 N   0  0  0  0  0  0  0  0  0  0  0  0
   18.4792    0.1915    0.0000 O   0  0  0  0  0  0  0  0  0  0  0  0
   13.8112   -1.2990    0.0000 C   0  0  0  0  0  0  0  0  0  0  0  0
   15.2736   -1.6328    0.0000 O   0  0  0  0  0  0  0  0  0  0  0  0
   13.3158   -2.7149    0.0000 N   0  0  0  0  0  0  0  0  0  0  0  0
   12.5177   -3.9849    0.0000 C   0  0  0  0  0  0  0  0  0  0  0  0
   13.6905   -4.9202    0.0000 C   0  0  0  0  0  0  0  0  0  0  0  0
   13.4669   -6.4034    0.0000 C   0  0  0  0  0  0  0  0  0  0  0  0
   14.6397   -7.3387    0.0000 C   0  0  0  0  0  0  0  0  0  0  0  0
   14.4161   -8.8219    0.0000 N   0  0  0  0  0  0  0  0  0  0  0  0
   15.5889   -9.7571    0.0000 C   0  0  0  0  0  0  0  0  0  0  0  0
   16.9852   -9.2091    0.0000 N   0  0  0  0  0  0  0  0  0  0  0  0
   15.3653  -11.2404    0.0000 N   0  0  0  0  0  0  0  0  0  0  0  0
   11.4571   -5.0456    0.0000 C   0  0  0  0  0  0  0  0  0  0  0  0
   12.3923   -6.2184    0.0000 O   0  0  0  0  0  0  0  0  0  0  0  0
   10.1870   -5.8437    0.0000 N   0  0  0  0  0  0  0  0  0  0  0  0
    8.7712   -6.3391    0.0000 C   0  0  0  0  0  0  0  0  0  0  0  0
    9.1050   -7.8015    0.0000 C   0  0  0  0  0  0  0  0  0  0  0  0
    8.0054   -8.8217    0.0000 C   0  0  0  0  0  0  0  0  0  0  0  0
    8.3392  -10.2841    0.0000 C   0  0  0  0  0  0  0  0  0  0  0  0
    7.2396  -11.3044    0.0000 N   0  0  0  0  0  0  0  0  0  0  0  0
    7.5734  -12.7668    0.0000 C   0  0  0  0  0  0  0  0  0  0  0  0
    8.3693  -12.8104    0.0000 N   0  0  0  0  0  0  0  0  0  0  0  0
    6.7533  -14.0228    0.0000 N   0  0  0  0  0  0  0  0  0  0  0  0
    7.2806   -6.5070    0.0000 C   0  0  0  0  0  0  0  0  0  0  0  0
    7.2806   -8.0070    0.0000 O   0  0  0  0  0  0  0  0  0  0  0  0
    5.7900   -6.3391    0.0000 N   0  0  0  0  0  0  0  0  0  0  0  0
    8.4050   -9.4496    0.0000 C   0  0  0  0  0  0  0  0  0  0  0  0
    9.3635   -8.2958    0.0000 N   0  0  0  0  0  0  0  0  0  0  0  0
    6.9092   -9.5617    0.0000 O   0  0  0  0  0  0  0  0  0  0  0  0
  2  1  1  1
  2  3  1  0
  3  4  1  0
  4  5  2  0
  4  6  1  0
  6  7  1  6
  7  8  1  0
  8  9  2  0
  9 10  1  0
 10 11  2  0
 11 12  1  0
 12 13  2  0
  6 14  1  0
 14 15  1  0
 15 16  2  0
 15 17  1  0
 17 18  1  1
 18 19  1  0
 19 20  1  0
 20 21  1  0
 21 22  1  0
 22 23  2  0
 22 24  1  0
 17 25  1  0
 25 26  1  0
 26 27  2  0
 26 28  1  0
 28 29  1  6
 29 30  1  0
 30 31  1  0
 31 32  1  0
 28 33  1  0
 33 34  1  0
 34 35  2  0
 36 34  1  6
 36 37  1  0
 37 38  1  0
 38 39  1  0
 39 40  2  0
 39 41  1  0
 41 42  2  0
 42 43  1  0
 43 44  2  0
 44 45  1  0
 45 46  2  0
 45 47  1  0
 47 48  2  0
 47 49  1  0
 49 50  1  0
 50 51  1  6
 51 52  1  0
 52 53  2  0
 53 54  1  0
 54 55  2  0
 55 56  1  0
 56 57  2  0
 57 58  1  0
 58 59  2  0
 59 60  1  0
 60 61  2  0
 50 62  1  0
 62 63  2  0
 62 64  1  0
 64 65  1  0
 65 66  1  1
 66 67  1  0
 65 68  1  0
 68 69  2  0
 68 70  1  0
 70 71  1  0
 71 72  1  1
 72 73  1  0
 73 74  1  0
 73 75  2  0
 71 76  1  0
 76 77  2  0
 76 78  1  0
 78 79  1  0
 79 80  1  6
 80 81  1  0
 81 82  2  0
 82 83  1  0
 83 84  2  0
 84 85  1  0
 85 86  2  0
 86 87  1  0
 87 88  2  0
 88 89  1  0
 89 90  2  0
 79 91  1  0
 91 92  2  0
 91 93  1  0
 93 94  1  0
 94 95  1  1
 95 96  2  0
 96 97  1  0
 97 98  2  0
 98 99  1  0
 99100  2  0
 94101  1  0
101102  2  0
101103  1  0
104103  1  6
104105  1  0
105106  1  0
106107  1  0
107108  1  0
108109  1  0
109110  1  0
110111  2  0
104112  1  0
112113  2  0
112114  1  0
114115  1  0
115116  1  6
116117  1  0
117118  2  0
118119  1  0
119120  2  0
120121  1  0
121122  1  0
121123  2  0
115124  1  0
124125  2  0
124126  1  0
126127  1  0
127128  1  6
128129  1  0
129130  1  0
130131  1  0
130132  2  0
127133  1  0
133134  2  0
133135  1  0
135136  1  0
136137  1  6
137138  1  0
138139  1  0
139140  1  0
140141  1  0
141142  2  0
141143  1  0
136144  1  0
144145  2  0
144146  1  0
146147  1  0
147148  1  1
148149  1  0
149150  1  0
150151  1  0
151152  1  0
152153  2  0
152154  1  0
147155  1  0
155156  2  0
155157  1  0
  2158  1  0
158159  1  0
158160  2  0
 13  8  1  0
157 36  1  0
 46 41  1  0
 61 52  1  0
 90 81  1  0
100 95  1  0
123117  1  0
110 43  1  0
 60 55  1  0
 89 84  1  0
M  END
>  <molecule_chembl_id>  (161) 
CHEMBL4879058

>  <canonical_smiles>  (161) 
C[C@@H](NC(=O)[C@H](Cc1ccccc1)NC(=O)[C@@H](CCCNC(=N)N)NC(=O)[C@H](CCCN)NC(=O)[C@@H]1CNC(=O)c2cc3cc(c2)C(=O)N[C@H](Cc2ccc4ccccc4c2)C(=O)N[C@@H](CO)C(=O)N[C@@H](CC(N)=O)C(=O)N[C@H](Cc2ccc4ccccc4c2)C(=O)N[C@@H](c2ccccc2)C(=O)N[C@@H](CCCCNC3=O)C(=O)N[C@H](Cc2cccc(Cl)c2)C(=O)N[C@H](CCC(N)=O)C(=O)N[C@H](CCCNC(=N)N)C(=O)N[C@@H](CCCNC(=N)N)C(=O)N1)C(N)=O

>  <pchembl_value_mean>  (161) 
6.15

>  <inchi>  (161) 
InChI=1S/C108H137ClN30O21/c1-58(88(113)143)125-98(153)78(48-59-19-4-2-5-20-59)133-95(150)75(32-17-43-122-107(116)117)126-92(147)73(30-15-40-110)129-103(158)83-56-124-90(145)69-52-68-53-70(54-69)91(146)132-79(50-61-34-36-63-22-8-10-26-66(63)45-61)100(155)138-84(57-140)104(159)136-82(55-86(112)142)101(156)135-81(51-62-35-37-64-23-9-11-27-67(64)46-62)102(157)139-87(65-24-6-3-7-25-65)105(160)131-72(29-12-13-41-120-89(68)144)94(149)134-80(49-60-21-14-28-71(109)47-60)99(154)130-77(38-39-85(111)141)97(152)128-74(31-16-42-121-106(114)115)93(148)127-76(96(151)137-83)33-18-44-123-108(118)119/h2-11,14,19-28,34-37,45-47,52-54,58,72-84,87,140H,12-13,15-18,29-33,38-44,48-51,55-57,110H2,1H3,(H2,111,141)(H2,112,142)(H2,113,143)(H,120,144)(H,124,145)(H,125,153)(H,126,147)(H,127,148)(H,128,152)(H,129,158)(H,130,154)(H,131,160)(H,132,146)(H,133,150)(H,134,149)(H,135,156)(H,136,159)(H,137,151)(H,138,155)(H,139,157)(H4,114,115,121)(H4,116,117,122)(H4,118,119,123)/t58-,72+,73+,74-,75-,76+,77-,78+,79-,80-,81-,82+,83+,84+,87+/m1/s1

$$$$

     RDKit          2D

160169  0  0  0  0  0  0  0  0999 V2000
   11.3966   -9.2254    0.0000 C   0  0  0  0  0  0  0  0  0  0  0  0
   10.7457  -10.5769    0.0000 C   0  0  0  0  0  0  0  0  0  0  0  0
    9.2499  -10.6890    0.0000 N   0  0  0  0  0  0  0  0  0  0  0  0
    8.5991  -12.0404    0.0000 C   0  0  0  0  0  0  0  0  0  0  0  0
    9.1251  -12.6394    0.0000 O   0  0  0  0  0  0  0  0  0  0  0  0
    7.1033  -12.1525    0.0000 C   0  0  0  0  0  0  0  0  0  0  0  0
    6.4525  -13.5040    0.0000 C   0  0  0  0  0  0  0  0  0  0  0  0
    7.2975  -14.7434    0.0000 C   0  0  0  0  0  0  0  0  0  0  0  0
    6.6466  -16.0948    0.0000 C   0  0  0  0  0  0  0  0  0  0  0  0
    7.4916  -17.3342    0.0000 C   0  0  0  0  0  0  0  0  0  0  0  0
    6.8408  -18.6856    0.0000 C   0  0  0  0  0  0  0  0  0  0  0  0
    5.3450  -18.7977    0.0000 C   0  0  0  0  0  0  0  0  0  0  0  0
    4.5000  -17.5584    0.0000 C   0  0  0  0  0  0  0  0  0  0  0  0
    5.1508  -16.2069    0.0000 C   0  0  0  0  0  0  0  0  0  0  0  0
    4.9567  -13.6161    0.0000 N   0  0  0  0  0  0  0  0  0  0  0  0
    4.1117  -12.3767    0.0000 C   0  0  0  0  0  0  0  0  0  0  0  0
    4.7625  -11.0253    0.0000 O   0  0  0  0  0  0  0  0  0  0  0  0
    2.6159  -12.4888    0.0000 C   0  0  0  0  0  0  0  0  0  0  0  0
    1.9651  -13.8403    0.0000 C   0  0  0  0  0  0  0  0  0  0  0  0
    2.8100  -15.0796    0.0000 C   0  0  0  0  0  0  0  0  0  0  0  0
    2.1592  -16.4311    0.0000 C   0  0  0  0  0  0  0  0  0  0  0  0
    3.0042  -17.6705    0.0000 N   0  0  0  0  0  0  0  0  0  0  0  0
    2.3534  -19.0219    0.0000 C   0  0  0  0  0  0  0  0  0  0  0  0
    0.8576  -19.1340    0.0000 N   0  0  0  0  0  0  0  0  0  0  0  0
    3.1984  -20.2613    0.0000 N   0  0  0  0  0  0  0  0  0  0  0  0
    1.7709  -11.2495    0.0000 N   0  0  0  0  0  0  0  0  0  0  0  0
    2.4217   -9.8980    0.0000 C   0  0  0  0  0  0  0  0  0  0  0  0
    3.9175   -9.7859    0.0000 O   0  0  0  0  0  0  0  0  0  0  0  0
    1.5768   -8.6587    0.0000 C   0  0  0  0  0  0  0  0  0  0  0  0
    0.0810   -8.7708    0.0000 C   0  0  0  0  0  0  0  0  0  0  0  0
   -0.5699  -10.1222    0.0000 C   0  0  0  0  0  0  0  0  0  0  0  0
   -2.0657  -10.2343    0.0000 C   0  0  0  0  0  0  0  0  0  0  0  0
   -2.7165  -11.5858    0.0000 N   0  0  0  0  0  0  0  0  0  0  0  0
    2.2276   -7.3072    0.0000 N   0  0  0  0  0  0  0  0  0  0  0  0
    3.7234   -7.1951    0.0000 C   0  0  0  0  0  0  0  0  0  0  0  0
    4.5684   -8.4345    0.0000 O   0  0  0  0  0  0  0  0  0  0  0  0
    4.3742   -5.8437    0.0000 C   0  0  0  0  0  0  0  0  0  0  0  0
    3.1041   -5.0456    0.0000 C   0  0  0  0  0  0  0  0  0  0  0  0
    2.0435   -3.9849    0.0000 N   0  0  0  0  0  0  0  0  0  0  0  0
    1.2454   -2.7149    0.0000 C   0  0  0  0  0  0  0  0  0  0  0  0
   -0.1060   -3.3657    0.0000 O   0  0  0  0  0  0  0  0  0  0  0  0
    0.7500   -1.2990    0.0000 C   0  0  0  0  0  0  0  0  0  0  0  0
    1.5000    0.0000    0.0000 C   0  0  0  0  0  0  0  0  0  0  0  0
    0.7500    1.2990    0.0000 C   0  0  0  0  0  0  0  0  0  0  0  0
   -0.7500    1.2990    0.0000 C   0  0  0  0  0  0  0  0  0  0  0  0
   -1.5000    0.0000    0.0000 C   0  0  0  0  0  0  0  0  0  0  0  0
   -0.7500   -1.2990    0.0000 C   0  0  0  0  0  0  0  0  0  0  0  0
   -2.7514    0.8271    0.0000 C   0  0  0  0  0  0  0  0  0  0  0  0
   -3.7181   -0.3198    0.0000 O   0  0  0  0  0  0  0  0  0  0  0  0
   -3.7782    1.9205    0.0000 N   0  0  0  0  0  0  0  0  0  0  0  0
   -4.5253    3.2212    0.0000 C   0  0  0  0  0  0  0  0  0  0  0  0
   -5.9040    2.6302    0.0000 C   0  0  0  0  0  0  0  0  0  0  0  0
   -6.0815    1.1408    0.0000 C   0  0  0  0  0  0  0  0  0  0  0  0
   -4.8803    0.2423    0.0000 C   0  0  0  0  0  0  0  0  0  0  0  0
   -5.0578   -1.2471    0.0000 C   0  0  0  0  0  0  0  0  0  0  0  0
   -6.4365   -1.8381    0.0000 C   0  0  0  0  0  0  0  0  0  0  0  0
   -6.6140   -3.3276    0.0000 C   0  0  0  0  0  0  0  0  0  0  0  0
   -7.9927   -3.9186    0.0000 C   0  0  0  0  0  0  0  0  0  0  0  0
   -9.1939   -3.0201    0.0000 C   0  0  0  0  0  0  0  0  0  0  0  0
   -9.0163   -1.5307    0.0000 C   0  0  0  0  0  0  0  0  0  0  0  0
   -7.6377   -0.9397    0.0000 C   0  0  0  0  0  0  0  0  0  0  0  0
   -7.4602    0.5498    0.0000 C   0  0  0  0  0  0  0  0  0  0  0  0
   -4.9522    4.6592    0.0000 C   0  0  0  0  0  0  0  0  0  0  0  0
   -6.4300    4.4021    0.0000 O   0  0  0  0  0  0  0  0  0  0  0  0
   -5.0361    6.1568    0.0000 N   0  0  0  0  0  0  0  0  0  0  0  0
   -4.7722    7.6335    0.0000 C   0  0  0  0  0  0  0  0  0  0  0  0
   -6.2082    8.0669    0.0000 C   0  0  0  0  0  0  0  0  0  0  0  0
   -6.5509    9.5273    0.0000 O   0  0  0  0  0  0  0  0  0  0  0  0
   -4.1750    9.0094    0.0000 C   0  0  0  0  0  0  0  0  0  0  0  0
   -5.4723    9.7624    0.0000 O   0  0  0  0  0  0  0  0  0  0  0  0
   -3.2765   10.2106    0.0000 N   0  0  0  0  0  0  0  0  0  0  0  0
   -2.1253   11.1722    0.0000 C   0  0  0  0  0  0  0  0  0  0  0  0
   -2.9467   12.4273    0.0000 C   0  0  0  0  0  0  0  0  0  0  0  0
   -4.4444   12.3434    0.0000 C   0  0  0  0  0  0  0  0  0  0  0  0
   -5.2658   13.5985    0.0000 N   0  0  0  0  0  0  0  0  0  0  0  0
   -5.1206   11.0045    0.0000 O   0  0  0  0  0  0  0  0  0  0  0  0
   -0.7833   11.8423    0.0000 C   0  0  0  0  0  0  0  0  0  0  0  0
   -1.2931   13.2530    0.0000 O   0  0  0  0  0  0  0  0  0  0  0  0
    0.6770   12.1849    0.0000 N   0  0  0  0  0  0  0  0  0  0  0  0
    2.1770   12.1815    0.0000 C   0  0  0  0  0  0  0  0  0  0  0  0
    2.3546   13.6710    0.0000 C   0  0  0  0  0  0  0  0  0  0  0  0
    1.1534   14.5694    0.0000 C   0  0  0  0  0  0  0  0  0  0  0  0
   -0.2253   13.9785    0.0000 C   0  0  0  0  0  0  0  0  0  0  0  0
   -1.4264   14.8769    0.0000 C   0  0  0  0  0  0  0  0  0  0  0  0
   -1.2489   16.3664    0.0000 C   0  0  0  0  0  0  0  0  0  0  0  0
   -2.4501   17.2648    0.0000 C   0  0  0  0  0  0  0  0  0  0  0  0
   -2.2725   18.7543    0.0000 C   0  0  0  0  0  0  0  0  0  0  0  0
   -0.8939   19.3453    0.0000 C   0  0  0  0  0  0  0  0  0  0  0  0
    0.3073   18.4468    0.0000 C   0  0  0  0  0  0  0  0  0  0  0  0
    0.1298   16.9574    0.0000 C   0  0  0  0  0  0  0  0  0  0  0  0
    1.3309   16.0589    0.0000 C   0  0  0  0  0  0  0  0  0  0  0  0
    3.6358   11.8323    0.0000 C   0  0  0  0  0  0  0  0  0  0  0  0
    4.1520   13.2407    0.0000 O   0  0  0  0  0  0  0  0  0  0  0  0
    4.9747   11.1561    0.0000 N   0  0  0  0  0  0  0  0  0  0  0  0
    6.1216   10.1893    0.0000 C   0  0  0  0  0  0  0  0  0  0  0  0
    7.2150   11.2162    0.0000 C   0  0  0  0  0  0  0  0  0  0  0  0
    8.6510   10.7827    0.0000 C   0  0  0  0  0  0  0  0  0  0  0  0
    9.7444   11.8096    0.0000 C   0  0  0  0  0  0  0  0  0  0  0  0
    9.4018   13.2699    0.0000 C   0  0  0  0  0  0  0  0  0  0  0  0
    7.9658   13.7034    0.0000 C   0  0  0  0  0  0  0  0  0  0  0  0
    6.8724   12.6765    0.0000 C   0  0  0  0  0  0  0  0  0  0  0  0
    7.0146    8.9841    0.0000 C   0  0  0  0  0  0  0  0  0  0  0  0
    8.3154    9.7311    0.0000 O   0  0  0  0  0  0  0  0  0  0  0  0
    7.6056    7.6054    0.0000 N   0  0  0  0  0  0  0  0  0  0  0  0
    8.7712    6.7221    0.0000 C   0  0  0  0  0  0  0  0  0  0  0  0
    7.2806    6.1901    0.0000 C   0  0  0  0  0  0  0  0  0  0  0  0
    5.9458    6.0397    0.0000 C   0  0  0  0  0  0  0  0  0  0  0  0
    4.6779    5.5960    0.0000 C   0  0  0  0  0  0  0  0  0  0  0  0
    3.5406    4.8814    0.0000 C   0  0  0  0  0  0  0  0  0  0  0  0
    2.5907    3.9316    0.0000 N   0  0  0  0  0  0  0  0  0  0  0  0
    1.5931    2.4904    0.0000 C   0  0  0  0  0  0  0  0  0  0  0  0
   -0.1060    3.7487    0.0000 O   0  0  0  0  0  0  0  0  0  0  0  0
   10.1870    6.2267    0.0000 C   0  0  0  0  0  0  0  0  0  0  0  0
   10.8378    7.5782    0.0000 O   0  0  0  0  0  0  0  0  0  0  0  0
   11.4571    5.4287    0.0000 N   0  0  0  0  0  0  0  0  0  0  0  0
   12.5177    4.3680    0.0000 C   0  0  0  0  0  0  0  0  0  0  0  0
   13.6905    5.3032    0.0000 C   0  0  0  0  0  0  0  0  0  0  0  0
   15.0868    4.7552    0.0000 C   0  0  0  0  0  0  0  0  0  0  0  0
   15.3104    3.2720    0.0000 C   0  0  0  0  0  0  0  0  0  0  0  0
   16.7067    2.7240    0.0000 C   0  0  0  0  0  0  0  0  0  0  0  0
   17.8794    3.6592    0.0000 C   0  0  0  0  0  0  0  0  0  0  0  0
   17.6559    5.1425    0.0000 C   0  0  0  0  0  0  0  0  0  0  0  0
   16.2596    5.6905    0.0000 C   0  0  0  0  0  0  0  0  0  0  0  0
   13.3158    3.0979    0.0000 C   0  0  0  0  0  0  0  0  0  0  0  0
   14.6672    3.7487    0.0000 O   0  0  0  0  0  0  0  0  0  0  0  0
   13.8112    1.6821    0.0000 N   0  0  0  0  0  0  0  0  0  0  0  0
   13.9792    0.1915    0.0000 C   0  0  0  0  0  0  0  0  0  0  0  0
   15.4792    0.1915    0.0000 C   0  0  0  0  0  0  0  0  0  0  0  0
   16.2292   -1.1075    0.0000 C   0  0  0  0  0  0  0  0  0  0  0  0
   17.7292   -1.1075    0.0000 C   0  0  0  0  0  0  0  0  0  0  0  0
   18.4792   -2.4065    0.0000 N   0  0  0  0  0  0  0  0  0  0  0  0
   18.4792    0.1915    0.0000 O   0  0  0  0  0  0  0  0  0  0  0  0
   13.8112   -1.2990    0.0000 C   0  0  0  0  0  0  0  0  0  0  0  0
   15.2736   -1.6328    0.0000 O   0  0  0  0  0  0  0  0  0  0  0  0
   13.3158   -2.7149    0.0000 N   0  0  0  0  0  0  0  0  0  0  0  0
   12.5177   -3.9849    0.0000 C   0  0  0  0  0  0  0  0  0  0  0  0
   13.6905   -4.9202    0.0000 C   0  0  0  0  0  0  0  0  0  0  0  0
   13.4669   -6.4034    0.0000 C   0  0  0  0  0  0  0  0  0  0  0  0
   14.6397   -7.3387    0.0000 C   0  0  0  0  0  0  0  0  0  0  0  0
   14.4161   -8.8219    0.0000 N   0  0  0  0  0  0  0  0  0  0  0  0
   15.5889   -9.7571    0.0000 C   0  0  0  0  0  0  0  0  0  0  0  0
   16.9852   -9.2091    0.0000 N   0  0  0  0  0  0  0  0  0  0  0  0
   15.3653  -11.2404    0.0000 N   0  0  0  0  0  0  0  0  0  0  0  0
   11.4571   -5.0456    0.0000 C   0  0  0  0  0  0  0  0  0  0  0  0
   12.3923   -6.2184    0.0000 O   0  0  0  0  0  0  0  0  0  0  0  0
   10.1870   -5.8437    0.0000 N   0  0  0  0  0  0  0  0  0  0  0  0
    8.7712   -6.3391    0.0000 C   0  0  0  0  0  0  0  0  0  0  0  0
    9.1050   -7.8015    0.0000 C   0  0  0  0  0  0  0  0  0  0  0  0
    8.0054   -8.8217    0.0000 C   0  0  0  0  0  0  0  0  0  0  0  0
    8.3392  -10.2841    0.0000 C   0  0  0  0  0  0  0  0  0  0  0  0
    7.2396  -11.3044    0.0000 N   0  0  0  0  0  0  0  0  0  0  0  0
    7.5734  -12.7668    0.0000 C   0  0  0  0  0  0  0  0  0  0  0  0
    8.3008  -13.0928    0.0000 N   0  0  0  0  0  0  0  0  0  0  0  0
    6.7533  -14.0228    0.0000 N   0  0  0  0  0  0  0  0  0  0  0  0
    7.2806   -6.5070    0.0000 C   0  0  0  0  0  0  0  0  0  0  0  0
    7.2806   -8.0070    0.0000 O   0  0  0  0  0  0  0  0  0  0  0  0
    5.7900   -6.3391    0.0000 N   0  0  0  0  0  0  0  0  0  0  0  0
   11.5907  -11.8163    0.0000 C   0  0  0  0  0  0  0  0  0  0  0  0
   13.0865  -11.7042    0.0000 N   0  0  0  0  0  0  0  0  0  0  0  0
   10.9399  -13.1677    0.0000 O   0  0  0  0  0  0  0  0  0  0  0  0
  2  1  1  1
  2  3  1  0
  3  4  1  0
  4  5  2  0
  4  6  1  0
  7  6  1  6
  7  8  1  0
  8  9  1  0
  9 10  2  0
 10 11  1  0
 11 12  2  0
 12 13  1  0
 13 14  2  0
  7 15  1  0
 15 16  1  0
 16 17  2  0
 16 18  1  0
 18 19  1  1
 19 20  1  0
 20 21  1  0
 21 22  1  0
 22 23  1  0
 23 24  2  0
 23 25  1  0
 18 26  1  0
 26 27  1  0
 27 28  2  0
 27 29  1  0
 29 30  1  6
 30 31  1  0
 31 32  1  0
 32 33  1  0
 29 34  1  0
 34 35  1  0
 35 36  2  0
 37 35  1  6
 37 38  1  0
 38 39  1  0
 39 40  1  0
 40 41  2  0
 40 42  1  0
 42 43  2  0
 43 44  1  0
 44 45  2  0
 45 46  1  0
 46 47  2  0
 46 48  1  0
 48 49  2  0
 48 50  1  0
 50 51  1  0
 51 52  1  6
 52 53  1  0
 53 54  2  0
 54 55  1  0
 55 56  2  0
 56 57  1  0
 57 58  2  0
 58 59  1  0
 59 60  2  0
 60 61  1  0
 61 62  2  0
 51 63  1  0
 63 64  2  0
 63 65  1  0
 65 66  1  0
 66 67  1  1
 67 68  1  0
 66 69  1  0
 69 70  2  0
 69 71  1  0
 71 72  1  0
 72 73  1  1
 73 74  1  0
 74 75  1  0
 74 76  2  0
 72 77  1  0
 77 78  2  0
 77 79  1  0
 79 80  1  0
 80 81  1  6
 81 82  1  0
 82 83  2  0
 83 84  1  0
 84 85  2  0
 85 86  1  0
 86 87  2  0
 87 88  1  0
 88 89  2  0
 89 90  1  0
 90 91  2  0
 80 92  1  0
 92 93  2  0
 92 94  1  0
 94 95  1  0
 95 96  1  1
 96 97  2  0
 97 98  1  0
 98 99  2  0
 99100  1  0
100101  2  0
 95102  1  0
102103  2  0
102104  1  0
105104  1  6
105106  1  0
106107  1  0
107108  1  0
108109  1  0
109110  1  0
110111  1  0
111112  2  0
105113  1  0
113114  2  0
113115  1  0
115116  1  0
116117  1  6
117118  1  0
118119  2  0
119120  1  0
120121  2  0
121122  1  0
122123  2  0
116124  1  0
124125  2  0
124126  1  0
126127  1  0
127128  1  6
128129  1  0
129130  1  0
130131  1  0
130132  2  0
127133  1  0
133134  2  0
133135  1  0
135136  1  0
136137  1  6
137138  1  0
138139  1  0
139140  1  0
140141  1  0
141142  2  0
141143  1  0
136144  1  0
144145  2  0
144146  1  0
146147  1  0
147148  1  1
148149  1  0
149150  1  0
150151  1  0
151152  1  0
152153  2  0
152154  1  0
147155  1  0
155156  2  0
155157  1  0
  2158  1  0
158159  1  0
158160  2  0
 14  9  1  0
157 37  1  0
 47 42  1  0
 62 53  1  0
 91 82  1  0
101 96  1  0
123118  1  0
111 44  1  0
 61 56  1  0
 90 85  1  0
M  END
>  <molecule_chembl_id>  (162) 
CHEMBL4859210

>  <canonical_smiles>  (162) 
C[C@H](NC(=O)C[C@H](Cc1ccccc1)NC(=O)[C@@H](CCCNC(=N)N)NC(=O)[C@H](CCCN)NC(=O)[C@@H]1CNC(=O)c2cc3cc(c2)C(=O)N[C@H](Cc2ccc4ccccc4c2)C(=O)N[C@@H](CO)C(=O)N[C@@H](CC(N)=O)C(=O)N[C@H](Cc2ccc4ccccc4c2)C(=O)N[C@@H](c2ccccc2)C(=O)N[C@@H](CCCCNC3=O)C(=O)N[C@H](Cc2ccccc2)C(=O)N[C@H](CCC(N)=O)C(=O)N[C@H](CCCNC(=N)N)C(=O)N[C@@H](CCCNC(=N)N)C(=O)N1)C(N)=O

>  <pchembl_value_mean>  (162) 
6.15

>  <inchi>  (162) 
InChI=1S/C109H140N30O21/c1-60(90(113)144)125-88(143)56-73(49-61-21-5-2-6-22-61)126-94(148)76(33-18-44-121-107(114)115)127-95(149)75(32-17-42-110)130-104(158)84-58-124-92(146)71-53-70-54-72(55-71)93(147)133-81(51-63-36-38-65-25-11-13-29-68(65)47-63)101(155)138-85(59-140)105(159)136-83(57-87(112)142)102(156)135-82(52-64-37-39-66-26-12-14-30-69(66)48-64)103(157)139-89(67-27-9-4-10-28-67)106(160)132-74(31-15-16-43-120-91(70)145)97(151)134-80(50-62-23-7-3-8-24-62)100(154)131-79(40-41-86(111)141)99(153)129-77(34-19-45-122-108(116)117)96(150)128-78(98(152)137-84)35-20-46-123-109(118)119/h2-14,21-30,36-39,47-48,53-55,60,73-85,89,140H,15-20,31-35,40-46,49-52,56-59,110H2,1H3,(H2,111,141)(H2,112,142)(H2,113,144)(H,120,145)(H,124,146)(H,125,143)(H,126,148)(H,127,149)(H,128,150)(H,129,153)(H,130,158)(H,131,154)(H,132,160)(H,133,147)(H,134,151)(H,135,156)(H,136,159)(H,137,152)(H,138,155)(H,139,157)(H4,114,115,121)(H4,116,117,122)(H4,118,119,123)/t60-,73-,74-,75-,76+,77+,78-,79+,80+,81+,82+,83-,84-,85-,89-/m0/s1

$$$$

     RDKit          2D

155163  0  0  0  0  0  0  0  0999 V2000
   15.4792   -0.1915    0.0000 C   0  0  0  0  0  0  0  0  0  0  0  0
   13.9792   -0.1915    0.0000 C   0  0  0  0  0  0  0  0  0  0  0  0
   13.8112   -1.6821    0.0000 N   0  0  0  0  0  0  0  0  0  0  0  0
   13.3158   -3.0979    0.0000 C   0  0  0  0  0  0  0  0  0  0  0  0
   14.6672   -3.7487    0.0000 O   0  0  0  0  0  0  0  0  0  0  0  0
   12.5177   -4.3680    0.0000 C   0  0  0  0  0  0  0  0  0  0  0  0
   13.6905   -5.3032    0.0000 C   0  0  0  0  0  0  0  0  0  0  0  0
   13.4669   -6.7865    0.0000 C   0  0  0  0  0  0  0  0  0  0  0  0
   12.0706   -7.3345    0.0000 C   0  0  0  0  0  0  0  0  0  0  0  0
   11.8471   -8.8177    0.0000 C   0  0  0  0  0  0  0  0  0  0  0  0
   13.0198   -9.7530    0.0000 C   0  0  0  0  0  0  0  0  0  0  0  0
   14.4161   -9.2050    0.0000 C   0  0  0  0  0  0  0  0  0  0  0  0
   14.6397   -7.7217    0.0000 C   0  0  0  0  0  0  0  0  0  0  0  0
   11.4571   -5.4287    0.0000 N   0  0  0  0  0  0  0  0  0  0  0  0
   10.1870   -6.2267    0.0000 C   0  0  0  0  0  0  0  0  0  0  0  0
   10.8378   -7.5782    0.0000 O   0  0  0  0  0  0  0  0  0  0  0  0
    8.7712   -6.7221    0.0000 C   0  0  0  0  0  0  0  0  0  0  0  0
    7.2806   -6.8901    0.0000 C   0  0  0  0  0  0  0  0  0  0  0  0
    5.7900   -6.7221    0.0000 C   0  0  0  0  0  0  0  0  0  0  0  0
    4.3742   -6.2267    0.0000 C   0  0  0  0  0  0  0  0  0  0  0  0
    3.1041   -5.4287    0.0000 C   0  0  0  0  0  0  0  0  0  0  0  0
    2.0435   -4.3680    0.0000 N   0  0  0  0  0  0  0  0  0  0  0  0
    1.2454   -3.0979    0.0000 C   0  0  0  0  0  0  0  0  0  0  0  0
   -0.1060   -3.7487    0.0000 O   0  0  0  0  0  0  0  0  0  0  0  0
    0.7500   -1.2990    0.0000 C   0  0  0  0  0  0  0  0  0  0  0  0
    1.5000    0.0000    0.0000 C   0  0  0  0  0  0  0  0  0  0  0  0
    0.7500    1.2990    0.0000 C   0  0  0  0  0  0  0  0  0  0  0  0
   -0.7500    1.2990    0.0000 C   0  0  0  0  0  0  0  0  0  0  0  0
   -1.5000    0.0000    0.0000 C   0  0  0  0  0  0  0  0  0  0  0  0
   -0.7500   -1.2990    0.0000 C   0  0  0  0  0  0  0  0  0  0  0  0
   -2.3002   -1.3623    0.0000 C   0  0  0  0  0  0  0  0  0  0  0  0
   -3.7181    0.3198    0.0000 O   0  0  0  0  0  0  0  0  0  0  0  0
   -3.2158   -2.3372    0.0000 N   0  0  0  0  0  0  0  0  0  0  0  0
   -3.8819   -3.4970    0.0000 C   0  0  0  0  0  0  0  0  0  0  0  0
   -5.9040   -2.6302    0.0000 C   0  0  0  0  0  0  0  0  0  0  0  0
   -6.0815   -1.1408    0.0000 C   0  0  0  0  0  0  0  0  0  0  0  0
   -4.8803   -0.2423    0.0000 C   0  0  0  0  0  0  0  0  0  0  0  0
   -5.0578    1.2471    0.0000 C   0  0  0  0  0  0  0  0  0  0  0  0
   -6.4365    1.8381    0.0000 C   0  0  0  0  0  0  0  0  0  0  0  0
   -6.6140    3.3276    0.0000 C   0  0  0  0  0  0  0  0  0  0  0  0
   -7.9927    3.9186    0.0000 C   0  0  0  0  0  0  0  0  0  0  0  0
   -9.1939    3.0201    0.0000 C   0  0  0  0  0  0  0  0  0  0  0  0
   -9.0163    1.5307    0.0000 C   0  0  0  0  0  0  0  0  0  0  0  0
   -7.6377    0.9397    0.0000 C   0  0  0  0  0  0  0  0  0  0  0  0
   -7.4602   -0.5498    0.0000 C   0  0  0  0  0  0  0  0  0  0  0  0
   -4.2626   -4.7792    0.0000 C   0  0  0  0  0  0  0  0  0  0  0  0
   -6.4300   -4.4021    0.0000 O   0  0  0  0  0  0  0  0  0  0  0  0
   -4.3373   -6.1146    0.0000 N   0  0  0  0  0  0  0  0  0  0  0  0
   -4.1021   -7.4312    0.0000 C   0  0  0  0  0  0  0  0  0  0  0  0
   -6.2082   -8.0669    0.0000 C   0  0  0  0  0  0  0  0  0  0  0  0
   -7.3016   -7.0400    0.0000 O   0  0  0  0  0  0  0  0  0  0  0  0
   -3.5696   -8.6581    0.0000 C   0  0  0  0  0  0  0  0  0  0  0  0
   -5.4723   -9.7624    0.0000 O   0  0  0  0  0  0  0  0  0  0  0  0
   -2.7685   -9.7291    0.0000 N   0  0  0  0  0  0  0  0  0  0  0  0
   -1.7420  -10.5864    0.0000 C   0  0  0  0  0  0  0  0  0  0  0  0
   -2.9467  -12.4273    0.0000 C   0  0  0  0  0  0  0  0  0  0  0  0
   -4.4444  -12.3434    0.0000 C   0  0  0  0  0  0  0  0  0  0  0  0
   -5.2658  -13.5985    0.0000 N   0  0  0  0  0  0  0  0  0  0  0  0
   -5.1206  -11.0045    0.0000 O   0  0  0  0  0  0  0  0  0  0  0  0
   -0.5454  -11.1840    0.0000 C   0  0  0  0  0  0  0  0  0  0  0  0
   -1.2931  -13.2530    0.0000 O   0  0  0  0  0  0  0  0  0  0  0  0
    0.7567  -11.4895    0.0000 N   0  0  0  0  0  0  0  0  0  0  0  0
    2.0942  -11.4864    0.0000 C   0  0  0  0  0  0  0  0  0  0  0  0
    2.3546  -13.6710    0.0000 C   0  0  0  0  0  0  0  0  0  0  0  0
    1.1534  -14.5694    0.0000 C   0  0  0  0  0  0  0  0  0  0  0  0
   -0.2253  -13.9785    0.0000 C   0  0  0  0  0  0  0  0  0  0  0  0
   -1.4264  -14.8769    0.0000 C   0  0  0  0  0  0  0  0  0  0  0  0
   -1.2489  -16.3664    0.0000 C   0  0  0  0  0  0  0  0  0  0  0  0
   -2.4501  -17.2648    0.0000 C   0  0  0  0  0  0  0  0  0  0  0  0
   -2.2725  -18.7543    0.0000 C   0  0  0  0  0  0  0  0  0  0  0  0
   -0.8939  -19.3453    0.0000 C   0  0  0  0  0  0  0  0  0  0  0  0
    0.3073  -18.4468    0.0000 C   0  0  0  0  0  0  0  0  0  0  0  0
    0.1298  -16.9574    0.0000 C   0  0  0  0  0  0  0  0  0  0  0  0
    1.3309  -16.0589    0.0000 C   0  0  0  0  0  0  0  0  0  0  0  0
    3.3949  -11.1751    0.0000 C   0  0  0  0  0  0  0  0  0  0  0  0
    4.1520  -13.2407    0.0000 O   0  0  0  0  0  0  0  0  0  0  0  0
    4.5887  -10.5721    0.0000 N   0  0  0  0  0  0  0  0  0  0  0  0
    5.6114   -9.7101    0.0000 C   0  0  0  0  0  0  0  0  0  0  0  0
    7.2150  -11.2162    0.0000 C   0  0  0  0  0  0  0  0  0  0  0  0
    6.8724  -12.6765    0.0000 C   0  0  0  0  0  0  0  0  0  0  0  0
    7.9658  -13.7034    0.0000 C   0  0  0  0  0  0  0  0  0  0  0  0
    9.4018  -13.2699    0.0000 C   0  0  0  0  0  0  0  0  0  0  0  0
    9.7444  -11.8096    0.0000 C   0  0  0  0  0  0  0  0  0  0  0  0
    8.6510  -10.7827    0.0000 C   0  0  0  0  0  0  0  0  0  0  0  0
    6.4076   -8.6354    0.0000 C   0  0  0  0  0  0  0  0  0  0  0  0
    8.3154   -9.7311    0.0000 O   0  0  0  0  0  0  0  0  0  0  0  0
    8.1358   -8.0625    0.0000 N   0  0  0  0  0  0  0  0  0  0  0  0
    1.2454    2.7149    0.0000 C   0  0  0  0  0  0  0  0  0  0  0  0
    0.0946    3.1047    0.0000 O   0  0  0  0  0  0  0  0  0  0  0  0
    2.0435    3.9849    0.0000 N   0  0  0  0  0  0  0  0  0  0  0  0
    3.1041    5.0456    0.0000 C   0  0  0  0  0  0  0  0  0  0  0  0
    4.3742    5.8437    0.0000 C   0  0  0  0  0  0  0  0  0  0  0  0
    3.7234    7.1951    0.0000 C   0  0  0  0  0  0  0  0  0  0  0  0
    2.2276    7.3072    0.0000 O   0  0  0  0  0  0  0  0  0  0  0  0
    4.5684    8.4345    0.0000 N   0  0  0  0  0  0  0  0  0  0  0  0
    3.9175    9.7859    0.0000 C   0  0  0  0  0  0  0  0  0  0  0  0
    4.7625   11.0253    0.0000 C   0  0  0  0  0  0  0  0  0  0  0  0
    4.1117   12.3767    0.0000 C   0  0  0  0  0  0  0  0  0  0  0  0
    4.9567   13.6161    0.0000 C   0  0  0  0  0  0  0  0  0  0  0  0
    4.3059   14.9675    0.0000 N   0  0  0  0  0  0  0  0  0  0  0  0
    2.4217    9.8980    0.0000 C   0  0  0  0  0  0  0  0  0  0  0  0
    1.5768    8.6587    0.0000 O   0  0  0  0  0  0  0  0  0  0  0  0
    1.7709   11.2495    0.0000 N   0  0  0  0  0  0  0  0  0  0  0  0
    0.2751   11.3616    0.0000 C   0  0  0  0  0  0  0  0  0  0  0  0
   -0.3757   12.7130    0.0000 C   0  0  0  0  0  0  0  0  0  0  0  0
   -1.8715   12.8251    0.0000 C   0  0  0  0  0  0  0  0  0  0  0  0
   -2.5224   14.1766    0.0000 C   0  0  0  0  0  0  0  0  0  0  0  0
   -4.0182   14.2887    0.0000 N   0  0  0  0  0  0  0  0  0  0  0  0
   -4.6690   15.6401    0.0000 C   0  0  0  0  0  0  0  0  0  0  0  0
   -3.8240   16.8795    0.0000 N   0  0  0  0  0  0  0  0  0  0  0  0
   -6.1648   15.7522    0.0000 N   0  0  0  0  0  0  0  0  0  0  0  0
   -0.5699   10.1222    0.0000 C   0  0  0  0  0  0  0  0  0  0  0  0
    0.0810    8.7708    0.0000 O   0  0  0  0  0  0  0  0  0  0  0  0
   -2.0657   10.2343    0.0000 N   0  0  0  0  0  0  0  0  0  0  0  0
   -2.9107    8.9949    0.0000 C   0  0  0  0  0  0  0  0  0  0  0  0
   -4.4065    9.1070    0.0000 C   0  0  0  0  0  0  0  0  0  0  0  0
   -5.2514    7.8677    0.0000 C   0  0  0  0  0  0  0  0  0  0  0  0
   -6.7473    7.9798    0.0000 C   0  0  0  0  0  0  0  0  0  0  0  0
   -7.5922    6.7404    0.0000 N   0  0  0  0  0  0  0  0  0  0  0  0
   -9.0880    6.8525    0.0000 C   0  0  0  0  0  0  0  0  0  0  0  0
   -9.7389    8.2040    0.0000 N   0  0  0  0  0  0  0  0  0  0  0  0
   -9.9330    5.6132    0.0000 N   0  0  0  0  0  0  0  0  0  0  0  0
   -2.2598    7.6435    0.0000 C   0  0  0  0  0  0  0  0  0  0  0  0
   -0.7640    7.5314    0.0000 O   0  0  0  0  0  0  0  0  0  0  0  0
   -3.1048    6.4041    0.0000 N   0  0  0  0  0  0  0  0  0  0  0  0
   -2.4540    5.0527    0.0000 C   0  0  0  0  0  0  0  0  0  0  0  0
   -3.2990    3.8133    0.0000 C   0  0  0  0  0  0  0  0  0  0  0  0
   -0.9582    4.9406    0.0000 C   0  0  0  0  0  0  0  0  0  0  0  0
   -0.1132    6.1799    0.0000 N   0  0  0  0  0  0  0  0  0  0  0  0
   -0.5684    3.7898    0.0000 O   0  0  0  0  0  0  0  0  0  0  0  0
    5.7900    6.3391    0.0000 N   0  0  0  0  0  0  0  0  0  0  0  0
    7.2806    6.5070    0.0000 C   0  0  0  0  0  0  0  0  0  0  0  0
    7.2806    8.0070    0.0000 O   0  0  0  0  0  0  0  0  0  0  0  0
    8.7712    6.3391    0.0000 C   0  0  0  0  0  0  0  0  0  0  0  0
    9.1050    7.8015    0.0000 C   0  0  0  0  0  0  0  0  0  0  0  0
   10.5383    8.2436    0.0000 C   0  0  0  0  0  0  0  0  0  0  0  0
   10.8721    9.7060    0.0000 C   0  0  0  0  0  0  0  0  0  0  0  0
   12.3055   10.1481    0.0000 N   0  0  0  0  0  0  0  0  0  0  0  0
   12.6392   11.6105    0.0000 C   0  0  0  0  0  0  0  0  0  0  0  0
   11.5397   12.6308    0.0000 N   0  0  0  0  0  0  0  0  0  0  0  0
   14.0726   12.0527    0.0000 N   0  0  0  0  0  0  0  0  0  0  0  0
   10.1870    5.8437    0.0000 N   0  0  0  0  0  0  0  0  0  0  0  0
   11.4571    5.0456    0.0000 C   0  0  0  0  0  0  0  0  0  0  0  0
   12.3923    6.2184    0.0000 O   0  0  0  0  0  0  0  0  0  0  0  0
   12.5177    3.9849    0.0000 C   0  0  0  0  0  0  0  0  0  0  0  0
   13.6905    4.9202    0.0000 C   0  0  0  0  0  0  0  0  0  0  0  0
   15.0868    4.3722    0.0000 C   0  0  0  0  0  0  0  0  0  0  0  0
   16.2596    5.3074    0.0000 C   0  0  0  0  0  0  0  0  0  0  0  0
   17.6559    4.7594    0.0000 N   0  0  0  0  0  0  0  0  0  0  0  0
   18.8286    5.6946    0.0000 C   0  0  0  0  0  0  0  0  0  0  0  0
   18.6050    7.1779    0.0000 N   0  0  0  0  0  0  0  0  0  0  0  0
   20.2249    5.1466    0.0000 N   0  0  0  0  0  0  0  0  0  0  0  0
   13.3158    2.7149    0.0000 N   0  0  0  0  0  0  0  0  0  0  0  0
   13.8112    1.2990    0.0000 C   0  0  0  0  0  0  0  0  0  0  0  0
   15.2736    1.6328    0.0000 O   0  0  0  0  0  0  0  0  0  0  0  0
  2  1  1  6
  2  3  1  0
  3  4  1  0
  4  5  2  0
  4  6  1  0
  6  7  1  1
  7  8  1  0
  8  9  2  0
  9 10  1  0
 10 11  2  0
 11 12  1  0
 12 13  2  0
  6 14  1  0
 14 15  1  0
 15 16  2  0
 15 17  1  0
 17 18  1  0
 18 19  1  0
 19 20  1  0
 20 21  1  0
 21 22  1  0
 22 23  1  0
 23 24  2  0
 23 25  1  0
 25 26  1  0
 26 27  2  0
 27 28  1  0
 28 29  2  0
 29 30  1  0
 29 31  1  0
 31 32  2  0
 31 33  1  0
 33 34  1  0
 34 35  1  1
 35 36  1  0
 36 37  2  0
 37 38  1  0
 38 39  2  0
 39 40  1  0
 40 41  2  0
 41 42  1  0
 42 43  2  0
 43 44  1  0
 44 45  2  0
 34 46  1  0
 46 47  2  0
 46 48  1  0
 48 49  1  0
 49 50  1  6
 50 51  1  0
 49 52  1  0
 52 53  2  0
 52 54  1  0
 54 55  1  0
 55 56  1  6
 56 57  1  0
 57 58  1  0
 57 59  2  0
 55 60  1  0
 60 61  2  0
 60 62  1  0
 62 63  1  0
 63 64  1  1
 64 65  1  0
 65 66  2  0
 66 67  1  0
 67 68  2  0
 68 69  1  0
 69 70  2  0
 70 71  1  0
 71 72  2  0
 72 73  1  0
 73 74  2  0
 63 75  1  0
 75 76  2  0
 75 77  1  0
 77 78  1  0
 78 79  1  6
 79 80  2  0
 80 81  1  0
 81 82  2  0
 82 83  1  0
 83 84  2  0
 78 85  1  0
 85 86  2  0
 85 87  1  0
 27 88  1  0
 88 89  2  0
 88 90  1  0
 90 91  1  0
 91 92  1  0
 92 93  1  1
 93 94  2  0
 93 95  1  0
 95 96  1  0
 96 97  1  6
 97 98  1  0
 98 99  1  0
 99100  1  0
 96101  1  0
101102  2  0
101103  1  0
103104  1  0
104105  1  1
105106  1  0
106107  1  0
107108  1  0
108109  1  0
109110  2  0
109111  1  0
104112  1  0
112113  2  0
112114  1  0
114115  1  0
115116  1  1
116117  1  0
117118  1  0
118119  1  0
119120  1  0
120121  2  0
120122  1  0
115123  1  0
123124  2  0
123125  1  0
125126  1  0
126127  1  1
126128  1  0
128129  1  0
128130  2  0
 92131  1  0
131132  1  0
132133  2  0
132134  1  0
134135  1  6
135136  1  0
136137  1  0
137138  1  0
138139  1  0
139140  2  0
139141  1  0
134142  1  0
142143  1  0
143144  2  0
143145  1  0
145146  1  1
146147  1  0
147148  1  0
148149  1  0
149150  1  0
150151  2  0
150152  1  0
145153  1  0
153154  1  0
154155  2  0
154  2  1  0
 13  8  1  0
 17 87  1  1
 30 25  2  0
 45 36  1  0
 74 65  1  0
 84 79  1  0
 44 39  1  0
 73 68  1  0
M  END
>  <molecule_chembl_id>  (163) 
CHEMBL4872610

>  <canonical_smiles>  (163) 
C[C@@H]1NC(=O)[C@@H](Cc2ccccc2)NC(=O)[C@@H]2CCCCNC(=O)c3cc(cc(c3)C(=O)N[C@H](Cc3ccc4ccccc4c3)C(=O)N[C@@H](CO)C(=O)N[C@@H](CC(N)=O)C(=O)N[C@H](Cc3ccc4ccccc4c3)C(=O)N[C@@H](c3ccccc3)C(=O)N2)C(=O)NC[C@@H](C(=O)N[C@@H](CCCN)C(=O)N[C@H](CCCNC(=N)N)C(=O)N[C@H](CCCNC(=N)N)C(=O)N[C@H](C)C(N)=O)NC(=O)[C@H](CCCNC(=N)N)NC(=O)[C@@H](CCCNC(=N)N)NC1=O

>  <pchembl_value_mean>  (163) 
6.16

>  <inchi>  (163) 
InChI=1S/C103H138N32O20/c1-55(82(106)138)121-87(143)70(30-16-40-116-100(107)108)124-90(146)72(32-18-42-118-102(111)112)125-88(144)69(29-15-38-104)127-97(153)78-53-120-85(141)66-49-65-50-67(51-66)86(142)129-75(47-58-34-36-60-22-9-11-26-63(60)44-58)94(150)134-79(54-136)98(154)132-77(52-80(105)137)95(151)131-76(48-59-35-37-61-23-10-12-27-64(61)45-59)96(152)135-81(62-24-7-4-8-25-62)99(155)128-68(28-13-14-39-115-84(65)140)91(147)130-74(46-57-20-5-3-6-21-57)93(149)122-56(2)83(139)123-71(31-17-41-117-101(109)110)89(145)126-73(92(148)133-78)33-19-43-119-103(113)114/h3-12,20-27,34-37,44-45,49-51,55-56,68-79,81,136H,13-19,28-33,38-43,46-48,52-54,104H2,1-2H3,(H2,105,137)(H2,106,138)(H,115,140)(H,120,141)(H,121,143)(H,122,149)(H,123,139)(H,124,146)(H,125,144)(H,126,145)(H,127,153)(H,128,155)(H,129,142)(H,130,147)(H,131,151)(H,132,154)(H,133,148)(H,134,150)(H,135,152)(H4,107,108,116)(H4,109,110,117)(H4,111,112,118)(H4,113,114,119)/t55-,56+,68+,69+,70-,71-,72-,73+,74-,75-,76-,77+,78+,79+,81+/m1/s1

$$$$

     RDKit          2D

107112  0  0  0  0  0  0  0  0999 V2000
  -11.8942   -4.8185    0.0000 C   0  0  0  0  0  0  0  0  0  0  0  0
  -11.3367   -6.2110    0.0000 C   0  0  0  0  0  0  0  0  0  0  0  0
   -9.8520   -6.4245    0.0000 C   0  0  0  0  0  0  0  0  0  0  0  0
   -9.2945   -7.8170    0.0000 C   0  0  0  0  0  0  0  0  0  0  0  0
   -7.8098   -8.0305    0.0000 C   0  0  0  0  0  0  0  0  0  0  0  0
   -7.8811   -9.5288    0.0000 N   0  0  0  0  0  0  0  0  0  0  0  0
   -7.6677  -11.0136    0.0000 C   0  0  0  0  0  0  0  0  0  0  0  0
   -9.1254  -11.3672    0.0000 O   0  0  0  0  0  0  0  0  0  0  0  0
   -7.1771  -12.4311    0.0000 C   0  0  0  0  0  0  0  0  0  0  0  0
   -8.5415  -13.0542    0.0000 C   0  0  0  0  0  0  0  0  0  0  0  0
   -9.7634  -12.1841    0.0000 C   0  0  0  0  0  0  0  0  0  0  0  0
   -9.6208  -10.6909    0.0000 C   0  0  0  0  0  0  0  0  0  0  0  0
  -10.8427   -9.8208    0.0000 C   0  0  0  0  0  0  0  0  0  0  0  0
  -12.2071  -10.4439    0.0000 C   0  0  0  0  0  0  0  0  0  0  0  0
  -13.4290   -9.5738    0.0000 F   0  0  0  0  0  0  0  0  0  0  0  0
  -12.3497  -11.9371    0.0000 C   0  0  0  0  0  0  0  0  0  0  0  0
  -11.1278  -12.8072    0.0000 C   0  0  0  0  0  0  0  0  0  0  0  0
   -6.4271  -13.7301    0.0000 N   0  0  0  0  0  0  0  0  0  0  0  0
   -5.4448  -14.8637    0.0000 C   0  0  0  0  0  0  0  0  0  0  0  0
   -6.4799  -15.9493    0.0000 O   0  0  0  0  0  0  0  0  0  0  0  0
   -4.2657  -15.7910    0.0000 C   0  0  0  0  0  0  0  0  0  0  0  0
   -5.0767  -17.0528    0.0000 C   0  0  0  0  0  0  0  0  0  0  0  0
   -6.5750  -16.9815    0.0000 C   0  0  0  0  0  0  0  0  0  0  0  0
   -7.3859  -18.2433    0.0000 C   0  0  0  0  0  0  0  0  0  0  0  0
   -8.8842  -18.1720    0.0000 N   0  0  0  0  0  0  0  0  0  0  0  0
   -9.6952  -19.4338    0.0000 C   0  0  0  0  0  0  0  0  0  0  0  0
  -11.1935  -19.3625    0.0000 N   0  0  0  0  0  0  0  0  0  0  0  0
   -9.0078  -20.7671    0.0000 N   0  0  0  0  0  0  0  0  0  0  0  0
   -2.9324  -16.4783    0.0000 N   0  0  0  0  0  0  0  0  0  0  0  0
   -1.4932  -16.9009    0.0000 C   0  0  0  0  0  0  0  0  0  0  0  0
   -1.7771  -18.3738    0.0000 O   0  0  0  0  0  0  0  0  0  0  0  0
    0.0000  -17.0435    0.0000 C   0  0  0  0  0  0  0  0  0  0  0  0
    0.0000  -18.5435    0.0000 C   0  0  0  0  0  0  0  0  0  0  0  0
   -1.2990  -19.2935    0.0000 C   0  0  0  0  0  0  0  0  0  0  0  0
   -2.5981  -18.5435    0.0000 C   0  0  0  0  0  0  0  0  0  0  0  0
   -3.8971  -19.2935    0.0000 C   0  0  0  0  0  0  0  0  0  0  0  0
   -3.8971  -20.7935    0.0000 C   0  0  0  0  0  0  0  0  0  0  0  0
   -5.1962  -21.5435    0.0000 C   0  0  0  0  0  0  0  0  0  0  0  0
   -5.1962  -23.0435    0.0000 C   0  0  0  0  0  0  0  0  0  0  0  0
   -3.8971  -23.7935    0.0000 C   0  0  0  0  0  0  0  0  0  0  0  0
   -2.5981  -23.0435    0.0000 C   0  0  0  0  0  0  0  0  0  0  0  0
   -2.5981  -21.5435    0.0000 C   0  0  0  0  0  0  0  0  0  0  0  0
   -1.2990  -20.7935    0.0000 C   0  0  0  0  0  0  0  0  0  0  0  0
    1.4932  -16.9009    0.0000 N   0  0  0  0  0  0  0  0  0  0  0  0
    2.9324  -16.4783    0.0000 C   0  0  0  0  0  0  0  0  0  0  0  0
    3.4899  -17.8708    0.0000 O   0  0  0  0  0  0  0  0  0  0  0  0
    4.2657  -15.7910    0.0000 C   0  0  0  0  0  0  0  0  0  0  0  0
    5.0767  -17.0528    0.0000 C   0  0  0  0  0  0  0  0  0  0  0  0
    4.3893  -18.3861    0.0000 C   0  0  0  0  0  0  0  0  0  0  0  0
    5.2003  -19.6480    0.0000 C   0  0  0  0  0  0  0  0  0  0  0  0
    4.5129  -20.9812    0.0000 N   0  0  0  0  0  0  0  0  0  0  0  0
    5.3239  -22.2431    0.0000 C   0  0  0  0  0  0  0  0  0  0  0  0
    4.6366  -23.5764    0.0000 N   0  0  0  0  0  0  0  0  0  0  0  0
    6.8222  -22.1717    0.0000 N   0  0  0  0  0  0  0  0  0  0  0  0
    5.4448  -14.8637    0.0000 N   0  0  0  0  0  0  0  0  0  0  0  0
    6.4271  -13.7301    0.0000 C   0  0  0  0  0  0  0  0  0  0  0  0
    7.6489  -14.6002    0.0000 O   0  0  0  0  0  0  0  0  0  0  0  0
    7.1771  -12.4311    0.0000 C   0  0  0  0  0  0  0  0  0  0  0  0
    8.5415  -13.0542    0.0000 C   0  0  0  0  0  0  0  0  0  0  0  0
    8.6841  -14.5474    0.0000 C   0  0  0  0  0  0  0  0  0  0  0  0
   10.0486  -15.1705    0.0000 C   0  0  0  0  0  0  0  0  0  0  0  0
   10.1911  -16.6637    0.0000 N   0  0  0  0  0  0  0  0  0  0  0  0
   11.5556  -17.2868    0.0000 C   0  0  0  0  0  0  0  0  0  0  0  0
   11.6982  -18.7800    0.0000 N   0  0  0  0  0  0  0  0  0  0  0  0
   12.7774  -16.4168    0.0000 N   0  0  0  0  0  0  0  0  0  0  0  0
    7.6677  -11.0136    0.0000 N   0  0  0  0  0  0  0  0  0  0  0  0
    7.8811   -9.5288    0.0000 C   0  0  0  0  0  0  0  0  0  0  0  0
    9.3794   -9.6002    0.0000 O   0  0  0  0  0  0  0  0  0  0  0  0
    7.8098   -8.0305    0.0000 C   0  0  0  0  0  0  0  0  0  0  0  0
    9.2945   -7.8170    0.0000 C   0  0  0  0  0  0  0  0  0  0  0  0
   10.2217   -8.9961    0.0000 C   0  0  0  0  0  0  0  0  0  0  0  0
   11.7065   -8.7827    0.0000 C   0  0  0  0  0  0  0  0  0  0  0  0
   12.6337   -9.9617    0.0000 N   0  0  0  0  0  0  0  0  0  0  0  0
   12.2640   -7.3901    0.0000 O   0  0  0  0  0  0  0  0  0  0  0  0
    7.4561   -6.5728    0.0000 N   0  0  0  0  0  0  0  0  0  0  0  0
    6.8330   -5.2084    0.0000 C   0  0  0  0  0  0  0  0  0  0  0  0
    8.1320   -4.4584    0.0000 O   0  0  0  0  0  0  0  0  0  0  0  0
    5.9629   -3.9865    0.0000 C   0  0  0  0  0  0  0  0  0  0  0  0
    4.8773   -2.9514    0.0000 C   0  0  0  0  0  0  0  0  0  0  0  0
    5.8046   -1.7723    0.0000 C   0  0  0  0  0  0  0  0  0  0  0  0
    7.2893   -1.9858    0.0000 C   0  0  0  0  0  0  0  0  0  0  0  0
    8.2165   -0.8067    0.0000 C   0  0  0  0  0  0  0  0  0  0  0  0
    9.7013   -1.0202    0.0000 C   0  0  0  0  0  0  0  0  0  0  0  0
   10.6285    0.1589    0.0000 C   0  0  0  0  0  0  0  0  0  0  0  0
   10.0710    1.5515    0.0000 C   0  0  0  0  0  0  0  0  0  0  0  0
    8.5863    1.7649    0.0000 C   0  0  0  0  0  0  0  0  0  0  0  0
    7.6590    0.5859    0.0000 C   0  0  0  0  0  0  0  0  0  0  0  0
    3.6154   -2.1404    0.0000 N   0  0  0  0  0  0  0  0  0  0  0  0
    2.2229   -1.5829    0.0000 C   0  0  0  0  0  0  0  0  0  0  0  0
    2.6455   -0.1437    0.0000 O   0  0  0  0  0  0  0  0  0  0  0  0
    0.7500   -1.2990    0.0000 C   0  0  0  0  0  0  0  0  0  0  0  0
    1.5000    0.0000    0.0000 C   0  0  0  0  0  0  0  0  0  0  0  0
    0.7500    1.2990    0.0000 C   0  0  0  0  0  0  0  0  0  0  0  0
   -0.7500    1.2990    0.0000 C   0  0  0  0  0  0  0  0  0  0  0  0
   -1.5000    0.0000    0.0000 C   0  0  0  0  0  0  0  0  0  0  0  0
   -0.7500   -1.2990    0.0000 N   0  0  0  0  0  0  0  0  0  0  0  0
   -2.2229   -1.5829    0.0000 C   0  0  0  0  0  0  0  0  0  0  0  0
   -2.6455   -0.1437    0.0000 O   0  0  0  0  0  0  0  0  0  0  0  0
   -3.6154   -2.1404    0.0000 C   0  0  0  0  0  0  0  0  0  0  0  0
   -4.3028   -0.8072    0.0000 O   0  0  0  0  0  0  0  0  0  0  0  0
   -4.8773   -2.9514    0.0000 C   0  0  0  0  0  0  0  0  0  0  0  0
   -6.2869   -2.4383    0.0000 C   0  0  0  0  0  0  0  0  0  0  0  0
   -5.0436   -1.4606    0.0000 C   0  0  0  0  0  0  0  0  0  0  0  0
   -5.9629   -3.9865    0.0000 C   0  0  0  0  0  0  0  0  0  0  0  0
   -6.8330   -5.2084    0.0000 O   0  0  0  0  0  0  0  0  0  0  0  0
   -7.4561   -6.5728    0.0000 C   0  0  0  0  0  0  0  0  0  0  0  0
   -8.8736   -6.0822    0.0000 O   0  0  0  0  0  0  0  0  0  0  0  0
  1  2  1  0
  2  3  1  0
  3  4  1  0
  5  4  1  6
  5  6  1  0
  6  7  1  0
  7  8  2  0
  7  9  1  0
  9 10  1  1
 10 11  1  0
 11 12  2  0
 12 13  1  0
 13 14  2  0
 14 15  1  0
 14 16  1  0
 16 17  2  0
  9 18  1  0
 18 19  1  0
 19 20  2  0
 19 21  1  0
 21 22  1  1
 22 23  1  0
 23 24  1  0
 24 25  1  0
 25 26  2  0
 26 27  1  0
 26 28  1  0
 21 29  1  0
 29 30  1  0
 30 31  2  0
 30 32  1  0
 32 33  1  6
 33 34  1  0
 34 35  2  0
 35 36  1  0
 36 37  2  0
 37 38  1  0
 38 39  2  0
 39 40  1  0
 40 41  2  0
 41 42  1  0
 42 43  2  0
 32 44  1  0
 44 45  1  0
 45 46  2  0
 45 47  1  0
 47 48  1  1
 48 49  1  0
 49 50  1  0
 50 51  1  0
 51 52  2  0
 52 53  1  0
 52 54  1  0
 47 55  1  0
 55 56  1  0
 56 57  2  0
 56 58  1  0
 58 59  1  1
 59 60  1  0
 60 61  1  0
 61 62  1  0
 62 63  2  0
 63 64  1  0
 63 65  1  0
 58 66  1  0
 66 67  1  0
 67 68  2  0
 67 69  1  0
 69 70  1  1
 70 71  1  0
 71 72  1  0
 72 73  1  0
 72 74  2  0
 69 75  1  0
 75 76  1  0
 76 77  2  0
 76 78  1  0
 78 79  1  0
 79 80  1  6
 80 81  1  0
 81 82  1  0
 82 83  2  0
 83 84  1  0
 84 85  2  0
 85 86  1  0
 86 87  2  0
 79 88  1  0
 88 89  1  0
 89 90  2  0
 89 91  1  0
 91 92  1  1
 92 93  1  0
 93 94  1  0
 94 95  1  0
 95 96  1  0
 96 97  1  0
 97 98  2  0
 97 99  1  0
 99100  2  0
 99101  1  0
101102  1  0
101103  1  0
101104  1  0
104105  1  0
105106  1  0
106107  2  0
106  5  1  0
 17 11  1  0
 43 34  1  0
 87 82  1  0
 96 91  1  0
 42 37  1  0
M  END
>  <molecule_chembl_id>  (164) 
CHEMBL3218641

>  <canonical_smiles>  (164) 
CCCC[C@H]1NC(=O)[C@H](Cc2ccc(F)cc2)NC(=O)[C@H](CCCN=C(N)N)NC(=O)[C@@H](Cc2ccc3ccccc3c2)NC(=O)[C@H](CCCN=C(N)N)NC(=O)[C@H](CCCN=C(N)N)NC(=O)[C@H](CCC(N)=O)NC(=O)C[C@@H](CCc2ccccc2)NC(=O)[C@@H]2CCCCN2C(=O)C(=O)C(C)(C)COC1=O

>  <pchembl_value_mean>  (164) 
6.16

>  <inchi>  (164) 
InChI=1S/C74H104FN19O13/c1-4-5-20-55-70(106)107-43-74(2,3)61(97)69(105)94-38-12-11-24-58(94)68(104)86-50(32-28-44-16-7-6-8-17-44)42-60(96)87-54(33-34-59(76)95)65(101)89-51(21-13-35-83-71(77)78)62(98)88-52(22-14-36-84-72(79)80)63(99)93-57(41-46-25-29-47-18-9-10-19-48(47)39-46)66(102)90-53(23-15-37-85-73(81)82)64(100)92-56(67(103)91-55)40-45-26-30-49(75)31-27-45/h6-10,16-19,25-27,29-31,39,50-58H,4-5,11-15,20-24,28,32-38,40-43H2,1-3H3,(H2,76,95)(H,86,104)(H,87,96)(H,88,98)(H,89,101)(H,90,102)(H,91,103)(H,92,100)(H,93,99)(H4,77,78,83)(H4,79,80,84)(H4,81,82,85)/t50-,51+,52+,53+,54+,55-,56+,57-,58+/m1/s1

$$$$

     RDKit          2D

 36 39  0  0  0  0  0  0  0  0999 V2000
   -7.2990   -5.9462    0.0000 O   0  0  0  0  0  0  0  0  0  0  0  0
   -6.0000   -5.1962    0.0000 S   0  0  0  0  0  0  0  0  0  0  0  0
   -4.7010   -4.4462    0.0000 O   0  0  0  0  0  0  0  0  0  0  0  0
   -6.7500   -3.8971    0.0000 C   0  0  0  0  0  0  0  0  0  0  0  0
   -6.0000   -2.5981    0.0000 C   0  0  0  0  0  0  0  0  0  0  0  0
   -6.7500   -1.2990    0.0000 C   0  0  0  0  0  0  0  0  0  0  0  0
   -8.2500   -1.2990    0.0000 C   0  0  0  0  0  0  0  0  0  0  0  0
   -9.0000    0.0000    0.0000 N   0  0  0  0  0  0  0  0  0  0  0  0
   -8.2500    1.2990    0.0000 O   0  0  0  0  0  0  0  0  0  0  0  0
   -9.0000   -2.5981    0.0000 C   0  0  0  0  0  0  0  0  0  0  0  0
   -8.2500   -3.8971    0.0000 C   0  0  0  0  0  0  0  0  0  0  0  0
   -5.2500   -6.4952    0.0000 N   0  0  0  0  0  0  0  0  0  0  0  0
   -3.7500   -6.4952    0.0000 C   0  0  0  0  0  0  0  0  0  0  0  0
   -3.0000   -5.1962    0.0000 C   0  0  0  0  0  0  0  0  0  0  0  0
   -1.5000   -5.1962    0.0000 O   0  0  0  0  0  0  0  0  0  0  0  0
   -0.7500   -3.8971    0.0000 C   0  0  0  0  0  0  0  0  0  0  0  0
    0.7500   -3.8971    0.0000 C   0  0  0  0  0  0  0  0  0  0  0  0
    1.5000   -2.5981    0.0000 C   0  0  0  0  0  0  0  0  0  0  0  0
    0.7500   -1.2990    0.0000 C   0  0  0  0  0  0  0  0  0  0  0  0
    1.5000    0.0000    0.0000 C   0  0  0  0  0  0  0  0  0  0  0  0
    0.7500    1.2990    0.0000 C   0  0  0  0  0  0  0  0  0  0  0  0
   -0.7500    1.2990    0.0000 C   0  0  0  0  0  0  0  0  0  0  0  0
   -1.5000    0.0000    0.0000 C   0  0  0  0  0  0  0  0  0  0  0  0
   -0.7500   -1.2990    0.0000 C   0  0  0  0  0  0  0  0  0  0  0  0
   -1.5000   -2.5981    0.0000 C   0  0  0  0  0  0  0  0  0  0  0  0
   -6.0000   -7.7942    0.0000 C   0  0  0  0  0  0  0  0  0  0  0  0
   -7.5000   -7.7942    0.0000 O   0  0  0  0  0  0  0  0  0  0  0  0
   -8.2500   -9.0933    0.0000 C   0  0  0  0  0  0  0  0  0  0  0  0
   -9.7500   -9.0933    0.0000 C   0  0  0  0  0  0  0  0  0  0  0  0
  -10.5000   -7.7942    0.0000 O   0  0  0  0  0  0  0  0  0  0  0  0
   -7.5000  -10.3923    0.0000 C   0  0  0  0  0  0  0  0  0  0  0  0
   -8.2500  -11.6913    0.0000 O   0  0  0  0  0  0  0  0  0  0  0  0
   -6.0000  -10.3923    0.0000 C   0  0  0  0  0  0  0  0  0  0  0  0
   -5.2500  -11.6913    0.0000 O   0  0  0  0  0  0  0  0  0  0  0  0
   -5.2500   -9.0933    0.0000 C   0  0  0  0  0  0  0  0  0  0  0  0
   -3.7500   -9.0933    0.0000 O   0  0  0  0  0  0  0  0  0  0  0  0
  1  2  2  0
  2  3  2  0
  2  4  1  0
  4  5  2  0
  5  6  1  0
  6  7  2  0
  7  8  1  0
  8  9  1  0
  7 10  1  0
 10 11  2  0
  2 12  1  0
 12 13  1  0
 13 14  1  0
 14 15  1  0
 15 16  1  0
 16 17  2  0
 17 18  1  0
 18 19  2  0
 19 20  1  0
 20 21  2  0
 21 22  1  0
 22 23  2  0
 23 24  1  0
 24 25  2  0
 26 12  1  1
 26 27  1  0
 27 28  1  0
 28 29  1  1
 29 30  1  0
 28 31  1  0
 31 32  1  6
 31 33  1  0
 33 34  1  1
 33 35  1  0
 35 36  1  6
 11  4  1  0
 25 16  1  0
 35 26  1  0
 24 19  1  0
M  END
>  <molecule_chembl_id>  (165) 
CHEMBL2086789

>  <canonical_smiles>  (165) 
O=S(=O)(c1ccc(NO)cc1)N(CCOc1ccc2ccccc2c1)[C@@H]1O[C@H](CO)[C@@H](O)[C@H](O)[C@H]1O

>  <pchembl_value_mean>  (165) 
6.16

>  <inchi>  (165) 
InChI=1S/C24H28N2O9S/c27-14-20-21(28)22(29)23(30)24(35-20)26(36(32,33)19-9-6-17(25-31)7-10-19)11-12-34-18-8-5-15-3-1-2-4-16(15)13-18/h1-10,13,20-25,27-31H,11-12,14H2/t20-,21-,22+,23-,24-/m1/s1

$$$$

     RDKit          2D

139147  0  0  0  0  0  0  0  0999 V2000
   15.4792   -0.1915    0.0000 C   0  0  0  0  0  0  0  0  0  0  0  0
   13.9792   -0.1915    0.0000 C   0  0  0  0  0  0  0  0  0  0  0  0
   13.8112   -1.6821    0.0000 N   0  0  0  0  0  0  0  0  0  0  0  0
   13.3158   -3.0979    0.0000 C   0  0  0  0  0  0  0  0  0  0  0  0
   14.6672   -3.7487    0.0000 O   0  0  0  0  0  0  0  0  0  0  0  0
   12.5177   -4.3680    0.0000 C   0  0  0  0  0  0  0  0  0  0  0  0
   13.6905   -5.3032    0.0000 C   0  0  0  0  0  0  0  0  0  0  0  0
   13.4669   -6.7865    0.0000 C   0  0  0  0  0  0  0  0  0  0  0  0
   12.0706   -7.3345    0.0000 C   0  0  0  0  0  0  0  0  0  0  0  0
   11.8471   -8.8177    0.0000 C   0  0  0  0  0  0  0  0  0  0  0  0
   13.0198   -9.7530    0.0000 C   0  0  0  0  0  0  0  0  0  0  0  0
   14.4161   -9.2050    0.0000 C   0  0  0  0  0  0  0  0  0  0  0  0
   14.6397   -7.7217    0.0000 C   0  0  0  0  0  0  0  0  0  0  0  0
   11.4571   -5.4287    0.0000 N   0  0  0  0  0  0  0  0  0  0  0  0
   10.1870   -6.2267    0.0000 C   0  0  0  0  0  0  0  0  0  0  0  0
   10.8378   -7.5782    0.0000 O   0  0  0  0  0  0  0  0  0  0  0  0
    8.7712   -6.7221    0.0000 C   0  0  0  0  0  0  0  0  0  0  0  0
    7.2806   -6.8901    0.0000 C   0  0  0  0  0  0  0  0  0  0  0  0
    5.7900   -6.7221    0.0000 C   0  0  0  0  0  0  0  0  0  0  0  0
    4.3742   -6.2267    0.0000 C   0  0  0  0  0  0  0  0  0  0  0  0
    3.1041   -5.4287    0.0000 C   0  0  0  0  0  0  0  0  0  0  0  0
    2.0435   -4.3680    0.0000 N   0  0  0  0  0  0  0  0  0  0  0  0
    1.2454   -3.0979    0.0000 C   0  0  0  0  0  0  0  0  0  0  0  0
   -0.1060   -3.7487    0.0000 O   0  0  0  0  0  0  0  0  0  0  0  0
    0.7500   -1.2990    0.0000 C   0  0  0  0  0  0  0  0  0  0  0  0
    1.5000    0.0000    0.0000 C   0  0  0  0  0  0  0  0  0  0  0  0
    0.7500    1.2990    0.0000 C   0  0  0  0  0  0  0  0  0  0  0  0
   -0.7500    1.2990    0.0000 C   0  0  0  0  0  0  0  0  0  0  0  0
   -1.5000    0.0000    0.0000 C   0  0  0  0  0  0  0  0  0  0  0  0
   -0.7500   -1.2990    0.0000 C   0  0  0  0  0  0  0  0  0  0  0  0
   -2.3002   -1.3623    0.0000 C   0  0  0  0  0  0  0  0  0  0  0  0
   -3.7181    0.3198    0.0000 O   0  0  0  0  0  0  0  0  0  0  0  0
   -3.2158   -2.3372    0.0000 N   0  0  0  0  0  0  0  0  0  0  0  0
   -3.8819   -3.4970    0.0000 C   0  0  0  0  0  0  0  0  0  0  0  0
   -5.9040   -2.6302    0.0000 C   0  0  0  0  0  0  0  0  0  0  0  0
   -6.0815   -1.1408    0.0000 C   0  0  0  0  0  0  0  0  0  0  0  0
   -4.8803   -0.2423    0.0000 C   0  0  0  0  0  0  0  0  0  0  0  0
   -5.0578    1.2471    0.0000 C   0  0  0  0  0  0  0  0  0  0  0  0
   -6.4365    1.8381    0.0000 C   0  0  0  0  0  0  0  0  0  0  0  0
   -6.6140    3.3276    0.0000 C   0  0  0  0  0  0  0  0  0  0  0  0
   -7.9927    3.9186    0.0000 C   0  0  0  0  0  0  0  0  0  0  0  0
   -9.1939    3.0201    0.0000 C   0  0  0  0  0  0  0  0  0  0  0  0
   -9.0163    1.5307    0.0000 C   0  0  0  0  0  0  0  0  0  0  0  0
   -7.6377    0.9397    0.0000 C   0  0  0  0  0  0  0  0  0  0  0  0
   -7.4602   -0.5498    0.0000 C   0  0  0  0  0  0  0  0  0  0  0  0
   -4.2626   -4.7792    0.0000 C   0  0  0  0  0  0  0  0  0  0  0  0
   -6.4300   -4.4021    0.0000 O   0  0  0  0  0  0  0  0  0  0  0  0
   -4.3373   -6.1146    0.0000 N   0  0  0  0  0  0  0  0  0  0  0  0
   -4.1021   -7.4312    0.0000 C   0  0  0  0  0  0  0  0  0  0  0  0
   -6.2082   -8.0669    0.0000 C   0  0  0  0  0  0  0  0  0  0  0  0
   -7.3016   -7.0400    0.0000 O   0  0  0  0  0  0  0  0  0  0  0  0
   -3.5696   -8.6581    0.0000 C   0  0  0  0  0  0  0  0  0  0  0  0
   -5.4723   -9.7624    0.0000 O   0  0  0  0  0  0  0  0  0  0  0  0
   -2.7685   -9.7291    0.0000 N   0  0  0  0  0  0  0  0  0  0  0  0
   -1.7420  -10.5864    0.0000 C   0  0  0  0  0  0  0  0  0  0  0  0
   -2.9467  -12.4273    0.0000 C   0  0  0  0  0  0  0  0  0  0  0  0
   -4.4444  -12.3434    0.0000 C   0  0  0  0  0  0  0  0  0  0  0  0
   -5.2658  -13.5985    0.0000 N   0  0  0  0  0  0  0  0  0  0  0  0
   -5.1206  -11.0045    0.0000 O   0  0  0  0  0  0  0  0  0  0  0  0
   -0.5454  -11.1840    0.0000 C   0  0  0  0  0  0  0  0  0  0  0  0
   -1.2931  -13.2530    0.0000 O   0  0  0  0  0  0  0  0  0  0  0  0
    0.7567  -11.4895    0.0000 N   0  0  0  0  0  0  0  0  0  0  0  0
    2.0942  -11.4864    0.0000 C   0  0  0  0  0  0  0  0  0  0  0  0
    2.3546  -13.6710    0.0000 C   0  0  0  0  0  0  0  0  0  0  0  0
    1.1534  -14.5694    0.0000 C   0  0  0  0  0  0  0  0  0  0  0  0
   -0.2253  -13.9785    0.0000 C   0  0  0  0  0  0  0  0  0  0  0  0
   -1.4264  -14.8769    0.0000 C   0  0  0  0  0  0  0  0  0  0  0  0
   -1.2489  -16.3664    0.0000 C   0  0  0  0  0  0  0  0  0  0  0  0
   -2.4501  -17.2648    0.0000 C   0  0  0  0  0  0  0  0  0  0  0  0
   -2.2725  -18.7543    0.0000 C   0  0  0  0  0  0  0  0  0  0  0  0
   -0.8939  -19.3453    0.0000 C   0  0  0  0  0  0  0  0  0  0  0  0
    0.3073  -18.4468    0.0000 C   0  0  0  0  0  0  0  0  0  0  0  0
    0.1298  -16.9574    0.0000 C   0  0  0  0  0  0  0  0  0  0  0  0
    1.3309  -16.0589    0.0000 C   0  0  0  0  0  0  0  0  0  0  0  0
    3.3949  -11.1751    0.0000 C   0  0  0  0  0  0  0  0  0  0  0  0
    4.1520  -13.2407    0.0000 O   0  0  0  0  0  0  0  0  0  0  0  0
    4.5887  -10.5721    0.0000 N   0  0  0  0  0  0  0  0  0  0  0  0
    5.6114   -9.7101    0.0000 C   0  0  0  0  0  0  0  0  0  0  0  0
    7.2150  -11.2162    0.0000 C   0  0  0  0  0  0  0  0  0  0  0  0
    6.8724  -12.6765    0.0000 C   0  0  0  0  0  0  0  0  0  0  0  0
    7.9658  -13.7034    0.0000 C   0  0  0  0  0  0  0  0  0  0  0  0
    9.4018  -13.2699    0.0000 C   0  0  0  0  0  0  0  0  0  0  0  0
    9.7444  -11.8096    0.0000 C   0  0  0  0  0  0  0  0  0  0  0  0
    8.6510  -10.7827    0.0000 C   0  0  0  0  0  0  0  0  0  0  0  0
    6.4076   -8.6354    0.0000 C   0  0  0  0  0  0  0  0  0  0  0  0
    8.3154   -9.7311    0.0000 O   0  0  0  0  0  0  0  0  0  0  0  0
    8.1358   -8.0625    0.0000 N   0  0  0  0  0  0  0  0  0  0  0  0
    1.2454    2.7149    0.0000 C   0  0  0  0  0  0  0  0  0  0  0  0
   -0.1060    3.3657    0.0000 O   0  0  0  0  0  0  0  0  0  0  0  0
    2.0435    3.9849    0.0000 N   0  0  0  0  0  0  0  0  0  0  0  0
    3.1041    5.0456    0.0000 C   0  0  0  0  0  0  0  0  0  0  0  0
    4.3742    5.8437    0.0000 C   0  0  0  0  0  0  0  0  0  0  0  0
    3.7234    7.1951    0.0000 C   0  0  0  0  0  0  0  0  0  0  0  0
    2.2276    7.3072    0.0000 O   0  0  0  0  0  0  0  0  0  0  0  0
    4.5684    8.4345    0.0000 N   0  0  0  0  0  0  0  0  0  0  0  0
    3.9175    9.7859    0.0000 C   0  0  0  0  0  0  0  0  0  0  0  0
    4.7625   11.0253    0.0000 C   0  0  0  0  0  0  0  0  0  0  0  0
    4.1117   12.3767    0.0000 C   0  0  0  0  0  0  0  0  0  0  0  0
    4.9567   13.6161    0.0000 N   0  0  0  0  0  0  0  0  0  0  0  0
    2.4217    9.8980    0.0000 C   0  0  0  0  0  0  0  0  0  0  0  0
    1.7709   11.2495    0.0000 C   0  0  0  0  0  0  0  0  0  0  0  0
    2.6159   12.4888    0.0000 O   0  0  0  0  0  0  0  0  0  0  0  0
    0.2751   11.3616    0.0000 N   0  0  0  0  0  0  0  0  0  0  0  0
   -0.3757   12.7130    0.0000 C   0  0  0  0  0  0  0  0  0  0  0  0
   -1.8715   12.8251    0.0000 C   0  0  0  0  0  0  0  0  0  0  0  0
   -2.5224   14.1766    0.0000 C   0  0  0  0  0  0  0  0  0  0  0  0
   -4.0182   14.2887    0.0000 C   0  0  0  0  0  0  0  0  0  0  0  0
   -4.6690   15.6401    0.0000 N   0  0  0  0  0  0  0  0  0  0  0  0
   -6.1648   15.7522    0.0000 C   0  0  0  0  0  0  0  0  0  0  0  0
   -7.0098   14.5129    0.0000 N   0  0  0  0  0  0  0  0  0  0  0  0
   -6.8156   17.1037    0.0000 N   0  0  0  0  0  0  0  0  0  0  0  0
    0.4693   13.9524    0.0000 C   0  0  0  0  0  0  0  0  0  0  0  0
   -0.1816   15.3038    0.0000 N   0  0  0  0  0  0  0  0  0  0  0  0
    1.9651   13.8403    0.0000 O   0  0  0  0  0  0  0  0  0  0  0  0
    5.7900    6.3391    0.0000 N   0  0  0  0  0  0  0  0  0  0  0  0
    7.2806    6.5070    0.0000 C   0  0  0  0  0  0  0  0  0  0  0  0
    7.2806    8.0070    0.0000 O   0  0  0  0  0  0  0  0  0  0  0  0
    8.7712    6.3391    0.0000 C   0  0  0  0  0  0  0  0  0  0  0  0
    9.1050    7.8015    0.0000 C   0  0  0  0  0  0  0  0  0  0  0  0
   10.5383    8.2436    0.0000 C   0  0  0  0  0  0  0  0  0  0  0  0
   10.8721    9.7060    0.0000 C   0  0  0  0  0  0  0  0  0  0  0  0
   12.3055   10.1481    0.0000 N   0  0  0  0  0  0  0  0  0  0  0  0
   12.6392   11.6105    0.0000 C   0  0  0  0  0  0  0  0  0  0  0  0
   11.5397   12.6308    0.0000 N   0  0  0  0  0  0  0  0  0  0  0  0
   14.0726   12.0527    0.0000 N   0  0  0  0  0  0  0  0  0  0  0  0
   10.1870    5.8437    0.0000 N   0  0  0  0  0  0  0  0  0  0  0  0
   11.4571    5.0456    0.0000 C   0  0  0  0  0  0  0  0  0  0  0  0
   12.3923    6.2184    0.0000 O   0  0  0  0  0  0  0  0  0  0  0  0
   12.5177    3.9849    0.0000 C   0  0  0  0  0  0  0  0  0  0  0  0
   13.6905    4.9202    0.0000 C   0  0  0  0  0  0  0  0  0  0  0  0
   15.0868    4.3722    0.0000 C   0  0  0  0  0  0  0  0  0  0  0  0
   16.2596    5.3074    0.0000 C   0  0  0  0  0  0  0  0  0  0  0  0
   17.6559    4.7594    0.0000 N   0  0  0  0  0  0  0  0  0  0  0  0
   18.8286    5.6946    0.0000 C   0  0  0  0  0  0  0  0  0  0  0  0
   18.6050    7.1779    0.0000 N   0  0  0  0  0  0  0  0  0  0  0  0
   20.2249    5.1466    0.0000 N   0  0  0  0  0  0  0  0  0  0  0  0
   13.3158    2.7149    0.0000 N   0  0  0  0  0  0  0  0  0  0  0  0
   13.8112    1.2990    0.0000 C   0  0  0  0  0  0  0  0  0  0  0  0
   15.2736    1.6328    0.0000 O   0  0  0  0  0  0  0  0  0  0  0  0
  2  1  1  6
  2  3  1  0
  3  4  1  0
  4  5  2  0
  4  6  1  0
  6  7  1  1
  7  8  1  0
  8  9  2  0
  9 10  1  0
 10 11  2  0
 11 12  1  0
 12 13  2  0
  6 14  1  0
 14 15  1  0
 15 16  2  0
 15 17  1  0
 17 18  1  0
 18 19  1  0
 19 20  1  0
 20 21  1  0
 21 22  1  0
 22 23  1  0
 23 24  2  0
 23 25  1  0
 25 26  1  0
 26 27  2  0
 27 28  1  0
 28 29  2  0
 29 30  1  0
 29 31  1  0
 31 32  2  0
 31 33  1  0
 33 34  1  0
 34 35  1  1
 35 36  1  0
 36 37  2  0
 37 38  1  0
 38 39  2  0
 39 40  1  0
 40 41  2  0
 41 42  1  0
 42 43  2  0
 43 44  1  0
 44 45  2  0
 34 46  1  0
 46 47  2  0
 46 48  1  0
 48 49  1  0
 49 50  1  6
 50 51  1  0
 49 52  1  0
 52 53  2  0
 52 54  1  0
 54 55  1  0
 55 56  1  6
 56 57  1  0
 57 58  1  0
 57 59  2  0
 55 60  1  0
 60 61  2  0
 60 62  1  0
 62 63  1  0
 63 64  1  1
 64 65  1  0
 65 66  2  0
 66 67  1  0
 67 68  2  0
 68 69  1  0
 69 70  2  0
 70 71  1  0
 71 72  2  0
 72 73  1  0
 73 74  2  0
 63 75  1  0
 75 76  2  0
 75 77  1  0
 77 78  1  0
 78 79  1  6
 79 80  2  0
 80 81  1  0
 81 82  2  0
 82 83  1  0
 83 84  2  0
 78 85  1  0
 85 86  2  0
 85 87  1  0
 27 88  1  0
 88 89  2  0
 88 90  1  0
 90 91  1  0
 91 92  1  0
 92 93  1  1
 93 94  2  0
 93 95  1  0
 95 96  1  0
 96 97  1  6
 97 98  1  0
 98 99  1  0
 96100  1  0
100101  1  0
101102  2  0
101103  1  0
103104  1  0
104105  1  6
105106  1  0
106107  1  0
107108  1  0
108109  1  0
109110  2  0
109111  1  0
104112  1  0
112113  1  0
112114  2  0
 92115  1  0
115116  1  0
116117  2  0
116118  1  0
118119  1  6
119120  1  0
120121  1  0
121122  1  0
122123  1  0
123124  2  0
123125  1  0
118126  1  0
126127  1  0
127128  2  0
127129  1  0
129130  1  1
130131  1  0
131132  1  0
132133  1  0
133134  1  0
134135  2  0
134136  1  0
129137  1  0
137138  1  0
138139  2  0
138  2  1  0
 13  8  1  0
 17 87  1  1
 30 25  2  0
 45 36  1  0
 74 65  1  0
 84 79  1  0
 44 39  1  0
 73 68  1  0
M  END
>  <molecule_chembl_id>  (166) 
CHEMBL4876249

>  <canonical_smiles>  (166) 
C[C@@H]1NC(=O)[C@@H](Cc2ccccc2)NC(=O)[C@@H]2CCCCNC(=O)c3cc(cc(c3)C(=O)N[C@H](Cc3ccc4ccccc4c3)C(=O)N[C@@H](CO)C(=O)N[C@@H](CC(N)=O)C(=O)N[C@H](Cc3ccc4ccccc4c3)C(=O)N[C@@H](c3ccccc3)C(=O)N2)C(=O)NC[C@@H](C(=O)N[C@@H](CCN)CC(=O)N[C@H](CCCNC(=N)N)C(N)=O)NC(=O)[C@H](CCCNC(=N)N)NC(=O)[C@@H](CCCNC(=N)N)NC1=O

>  <pchembl_value_mean>  (166) 
6.16

>  <inchi>  (166) 
InChI=1S/C94H121N27O18/c1-51-78(126)112-66(27-15-37-106-93(100)101)82(130)113-67(28-16-38-107-94(102)103)84(132)119-72(89(137)110-63(33-34-95)47-75(124)111-64(77(97)125)26-14-36-105-92(98)99)49-108-80(128)61-44-60-45-62(46-61)81(129)115-69(42-53-29-31-55-19-8-10-23-58(55)39-53)86(134)120-73(50-122)90(138)118-71(48-74(96)123)87(135)117-70(43-54-30-32-56-20-9-11-24-59(56)40-54)88(136)121-76(57-21-6-3-7-22-57)91(139)114-65(25-12-13-35-104-79(60)127)83(131)116-68(85(133)109-51)41-52-17-4-2-5-18-52/h2-11,17-24,29-32,39-40,44-46,51,63-73,76,122H,12-16,25-28,33-38,41-43,47-50,95H2,1H3,(H2,96,123)(H2,97,125)(H,104,127)(H,108,128)(H,109,133)(H,110,137)(H,111,124)(H,112,126)(H,113,130)(H,114,139)(H,115,129)(H,116,131)(H,117,135)(H,118,138)(H,119,132)(H,120,134)(H,121,136)(H4,98,99,105)(H4,100,101,106)(H4,102,103,107)/t51-,63-,64+,65-,66+,67-,68+,69+,70+,71-,72-,73-,76-/m0/s1

$$$$

     RDKit          2D

 33 38  0  0  0  0  0  0  0  0999 V2000
  -12.1677   -7.0526    0.0000 C   0  0  0  0  0  0  0  0  0  0  0  0
  -11.2860   -5.8390    0.0000 C   0  0  0  0  0  0  0  0  0  0  0  0
   -9.7942   -5.9958    0.0000 C   0  0  0  0  0  0  0  0  0  0  0  0
   -9.1841   -7.3662    0.0000 O   0  0  0  0  0  0  0  0  0  0  0  0
   -8.9126   -4.7823    0.0000 N   0  0  0  0  0  0  0  0  0  0  0  0
   -9.1472   -3.3008    0.0000 C   0  0  0  0  0  0  0  0  0  0  0  0
   -7.6657   -3.0661    0.0000 C   0  0  0  0  0  0  0  0  0  0  0  0
   -6.1841   -2.8315    0.0000 C   0  0  0  0  0  0  0  0  0  0  0  0
   -6.4188   -1.3499    0.0000 C   0  0  0  0  0  0  0  0  0  0  0  0
   -5.5371   -0.1364    0.0000 N   0  0  0  0  0  0  0  0  0  0  0  0
   -6.0006    1.2902    0.0000 N   0  0  0  0  0  0  0  0  0  0  0  0
   -4.7871    2.1718    0.0000 C   0  0  0  0  0  0  0  0  0  0  0  0
   -4.7871    3.6718    0.0000 C   0  0  0  0  0  0  0  0  0  0  0  0
   -3.4881    4.4218    0.0000 C   0  0  0  0  0  0  0  0  0  0  0  0
   -3.4881    5.9218    0.0000 C   0  0  0  0  0  0  0  0  0  0  0  0
   -4.7871    6.6718    0.0000 C   0  0  0  0  0  0  0  0  0  0  0  0
   -6.0862    5.9218    0.0000 C   0  0  0  0  0  0  0  0  0  0  0  0
   -6.0862    4.4218    0.0000 C   0  0  0  0  0  0  0  0  0  0  0  0
   -3.5736    1.2902    0.0000 C   0  0  0  0  0  0  0  0  0  0  0  0
   -2.1470    1.7537    0.0000 C   0  0  0  0  0  0  0  0  0  0  0  0
   -1.0323    0.7500    0.0000 C   0  0  0  0  0  0  0  0  0  0  0  0
   -1.3442   -0.7172    0.0000 Cl  0  0  0  0  0  0  0  0  0  0  0  0
    0.3943    1.2135    0.0000 C   0  0  0  0  0  0  0  0  0  0  0  0
    0.7062    2.6807    0.0000 C   0  0  0  0  0  0  0  0  0  0  0  0
   -0.4086    3.6844    0.0000 C   0  0  0  0  0  0  0  0  0  0  0  0
   -0.4086    5.1844    0.0000 N   0  0  0  0  0  0  0  0  0  0  0  0
   -1.8351    5.6480    0.0000 N   0  0  0  0  0  0  0  0  0  0  0  0
   -2.7168    4.4344    0.0000 C   0  0  0  0  0  0  0  0  0  0  0  0
   -1.8351    3.2209    0.0000 C   0  0  0  0  0  0  0  0  0  0  0  0
   -4.0371   -0.1364    0.0000 C   0  0  0  0  0  0  0  0  0  0  0  0
   -3.1554   -1.3499    0.0000 C   0  0  0  0  0  0  0  0  0  0  0  0
   -7.9003   -1.5846    0.0000 C   0  0  0  0  0  0  0  0  0  0  0  0
   -7.4310   -4.5477    0.0000 C   0  0  0  0  0  0  0  0  0  0  0  0
  1  2  2  0
  2  3  1  0
  3  4  2  0
  3  5  1  0
  5  6  1  0
  6  7  1  0
  7  8  1  0
  8  9  1  0
  9 10  1  0
 10 11  1  0
 11 12  2  0
 12 13  1  0
 13 14  1  0
 14 15  1  0
 15 16  1  0
 16 17  1  0
 17 18  1  0
 12 19  1  0
 19 20  1  0
 20 21  2  0
 21 22  1  0
 21 23  1  0
 23 24  2  0
 24 25  1  0
 25 26  1  0
 26 27  1  0
 27 28  2  0
 28 29  1  0
 19 30  2  0
 30 31  1  0
  9 32  1  0
  7 33  1  0
 33  5  1  0
 32  7  1  0
 30 10  1  0
 18 13  1  0
 29 20  1  0
 29 25  2  0
M  END
>  <molecule_chembl_id>  (167) 
CHEMBL5291136

>  <canonical_smiles>  (167) 
C=CC(=O)N1CC2(CC(n3nc(C4CCCCC4)c(-c4c(Cl)ccc5[nH]ncc45)c3C)C2)C1

>  <pchembl_value_mean>  (167) 
6.16

>  <inchi>  (167) 
InChI=1S/C26H30ClN5O/c1-3-22(33)31-14-26(15-31)11-18(12-26)32-16(2)23(25(30-32)17-7-5-4-6-8-17)24-19-13-28-29-21(19)10-9-20(24)27/h3,9-10,13,17-18H,1,4-8,11-12,14-15H2,2H3,(H,28,29)

$$$$

     RDKit          2D

 56 63  0  0  0  0  0  0  0  0999 V2000
    5.1731   -3.9415    0.0000 C   0  0  0  0  0  0  0  0  0  0  0  0
    3.8740   -4.6915    0.0000 C   0  0  0  0  0  0  0  0  0  0  0  0
    3.7172   -6.1833    0.0000 C   0  0  0  0  0  0  0  0  0  0  0  0
    2.2500   -6.4952    0.0000 N   0  0  0  0  0  0  0  0  0  0  0  0
    1.2463   -7.6099    0.0000 C   0  0  0  0  0  0  0  0  0  0  0  0
   -0.1240   -6.9998    0.0000 C   0  0  0  0  0  0  0  0  0  0  0  0
    0.0328   -5.5080    0.0000 C   0  0  0  0  0  0  0  0  0  0  0  0
    1.5000   -5.1962    0.0000 C   0  0  0  0  0  0  0  0  0  0  0  0
    0.7500   -3.8971    0.0000 C   0  0  0  0  0  0  0  0  0  0  0  0
    1.5000   -2.5981    0.0000 O   0  0  0  0  0  0  0  0  0  0  0  0
    0.7500   -1.2990    0.0000 C   0  0  0  0  0  0  0  0  0  0  0  0
    1.5000    0.0000    0.0000 N   0  0  0  0  0  0  0  0  0  0  0  0
    0.7500    1.2990    0.0000 C   0  0  0  0  0  0  0  0  0  0  0  0
    1.5000    2.5981    0.0000 N   0  0  0  0  0  0  0  0  0  0  0  0
    3.0000    2.5981    0.0000 C   0  0  0  0  0  0  0  0  0  0  0  0
    3.7500    3.8971    0.0000 C   0  0  0  0  0  0  0  0  0  0  0  0
    3.0000    5.1962    0.0000 N   0  0  0  0  0  0  0  0  0  0  0  0
    3.7500    6.4952    0.0000 C   0  0  0  0  0  0  0  0  0  0  0  0
    3.0000    7.7942    0.0000 O   0  0  0  0  0  0  0  0  0  0  0  0
    5.2500    6.4952    0.0000 C   0  0  0  0  0  0  0  0  0  0  0  0
    6.0000    7.7942    0.0000 C   0  0  0  0  0  0  0  0  0  0  0  0
    7.5000    7.7942    0.0000 C   0  0  0  0  0  0  0  0  0  0  0  0
    8.2500    6.4952    0.0000 C   0  0  0  0  0  0  0  0  0  0  0  0
    9.7500    6.4952    0.0000 C   0  0  0  0  0  0  0  0  0  0  0  0
   10.5000    7.7942    0.0000 C   0  0  0  0  0  0  0  0  0  0  0  0
    9.7500    9.0933    0.0000 C   0  0  0  0  0  0  0  0  0  0  0  0
    8.2500    9.0933    0.0000 C   0  0  0  0  0  0  0  0  0  0  0  0
    7.5000   10.3923    0.0000 C   0  0  0  0  0  0  0  0  0  0  0  0
    8.2500   11.6913    0.0000 N   0  0  0  0  0  0  0  0  0  0  0  0
    9.7500   11.6913    0.0000 C   0  0  0  0  0  0  0  0  0  0  0  0
   10.5000   10.3923    0.0000 C   0  0  0  0  0  0  0  0  0  0  0  0
    1.5000    5.1962    0.0000 C   0  0  0  0  0  0  0  0  0  0  0  0
    0.7500    3.8971    0.0000 C   0  0  0  0  0  0  0  0  0  0  0  0
   -0.7500    3.8971    0.0000 C   0  0  0  0  0  0  0  0  0  0  0  0
   -0.7500    1.2990    0.0000 C   0  0  0  0  0  0  0  0  0  0  0  0
   -1.5000    2.5981    0.0000 C   0  0  0  0  0  0  0  0  0  0  0  0
   -3.0000    2.5981    0.0000 C   0  0  0  0  0  0  0  0  0  0  0  0
   -3.5331    3.3054    0.0000 Cl  0  0  0  0  0  0  0  0  0  0  0  0
   -3.7500    1.2990    0.0000 C   0  0  0  0  0  0  0  0  0  0  0  0
   -5.2500    1.2990    0.0000 C   0  0  0  0  0  0  0  0  0  0  0  0
   -6.0000    0.0000    0.0000 N   0  0  0  0  0  0  0  0  0  0  0  0
   -7.5000    0.0000    0.0000 C   0  0  0  0  0  0  0  0  0  0  0  0
   -8.2500   -1.2990    0.0000 N   0  0  0  0  0  0  0  0  0  0  0  0
   -8.2500    1.2990    0.0000 C   0  0  0  0  0  0  0  0  0  0  0  0
   -7.5000    2.5981    0.0000 C   0  0  0  0  0  0  0  0  0  0  0  0
   -8.2500    3.8971    0.0000 C   0  0  0  0  0  0  0  0  0  0  0  0
   -6.0000    2.5981    0.0000 C   0  0  0  0  0  0  0  0  0  0  0  0
   -5.2500    3.8971    0.0000 C   0  0  0  0  0  0  0  0  0  0  0  0
   -4.5000    5.1962    0.0000 F   0  0  0  0  0  0  0  0  0  0  0  0
   -4.5426    3.3640    0.0000 F   0  0  0  0  0  0  0  0  0  0  0  0
   -6.5490    4.6471    0.0000 F   0  0  0  0  0  0  0  0  0  0  0  0
   -3.0000    0.0000    0.0000 C   0  0  0  0  0  0  0  0  0  0  0  0
   -3.7500   -1.2990    0.0000 F   0  0  0  0  0  0  0  0  0  0  0  0
   -1.5000    0.0000    0.0000 C   0  0  0  0  0  0  0  0  0  0  0  0
   -0.7500   -1.2990    0.0000 N   0  0  0  0  0  0  0  0  0  0  0  0
    2.5037   -4.0814    0.0000 C   0  0  0  0  0  0  0  0  0  0  0  0
  1  2  2  0
  2  3  1  0
  3  4  1  0
  4  5  1  0
  5  6  1  0
  6  7  1  0
  7  8  1  0
  8  9  1  6
  9 10  1  0
 10 11  1  0
 11 12  2  0
 12 13  1  0
 13 14  1  0
 14 15  1  0
 15 16  1  0
 16 17  1  0
 17 18  1  0
 18 19  2  0
 18 20  1  0
 20 21  2  0
 21 22  1  0
 22 23  2  0
 23 24  1  0
 24 25  2  0
 25 26  1  0
 26 27  2  0
 27 28  1  0
 28 29  1  0
 29 30  1  0
 30 31  1  0
 17 32  1  0
 32 33  1  0
 33 34  1  1
 13 35  2  0
 35 36  1  0
 36 37  2  0
 37 38  1  0
 37 39  1  0
 39 40  1  0
 40 41  2  0
 41 42  1  0
 42 43  1  0
 42 44  2  0
 44 45  1  0
 45 46  1  0
 45 47  2  0
 47 48  1  0
 48 49  1  0
 48 50  1  0
 48 51  1  0
 39 52  2  0
 52 53  1  0
 52 54  1  0
 54 55  2  0
  8 56  1  0
 56  2  1  0
  8  4  1  0
 55 11  1  0
 33 14  1  0
 54 35  1  0
 27 22  1  0
 47 40  1  0
 31 26  1  0
M  END
>  <molecule_chembl_id>  (168) 
CHEMBL5404413

>  <canonical_smiles>  (168) 
C=C1CN2CCC[C@@]2(COc2nc(N3CCN(C(=O)/C=C/c4cccc5c4CNCC5)C[C@@H]3C)c3cc(Cl)c(-c4nc(N)cc(C)c4C(F)(F)F)c(F)c3n2)C1

>  <pchembl_value_mean>  (168) 
6.16

>  <inchi>  (168) 
InChI=1S/C41H43ClF4N8O2/c1-23-18-40(11-5-13-53(40)20-23)22-56-39-50-36-28(17-30(42)33(35(36)43)37-34(41(44,45)46)24(2)16-31(47)49-37)38(51-39)54-15-14-52(21-25(54)3)32(55)9-8-26-6-4-7-27-10-12-48-19-29(26)27/h4,6-9,16-17,25,48H,1,5,10-15,18-22H2,2-3H3,(H2,47,49)/b9-8+/t25-,40-/m0/s1

$$$$

     RDKit          2D

 48 53  0  0  0  0  0  0  0  0999 V2000
   -6.2455   -5.5373    0.0000 C   0  0  0  0  0  0  0  0  0  0  0  0
   -5.2418   -6.6520    0.0000 N   0  0  0  0  0  0  0  0  0  0  0  0
   -5.5537   -8.1192    0.0000 C   0  0  0  0  0  0  0  0  0  0  0  0
   -4.2546   -8.8692    0.0000 C   0  0  0  0  0  0  0  0  0  0  0  0
   -3.1399   -7.8655    0.0000 C   0  0  0  0  0  0  0  0  0  0  0  0
   -3.7500   -6.4952    0.0000 C   0  0  0  0  0  0  0  0  0  0  0  0
   -3.0000   -5.1962    0.0000 C   0  0  0  0  0  0  0  0  0  0  0  0
   -1.5000   -5.1962    0.0000 O   0  0  0  0  0  0  0  0  0  0  0  0
   -0.7500   -3.8971    0.0000 C   0  0  0  0  0  0  0  0  0  0  0  0
   -1.5000   -2.5981    0.0000 N   0  0  0  0  0  0  0  0  0  0  0  0
   -0.7500   -1.2990    0.0000 C   0  0  0  0  0  0  0  0  0  0  0  0
    0.7500   -1.2990    0.0000 C   0  0  0  0  0  0  0  0  0  0  0  0
    1.5000   -2.5981    0.0000 C   0  0  0  0  0  0  0  0  0  0  0  0
    3.0000   -2.5981    0.0000 N   0  0  0  0  0  0  0  0  0  0  0  0
    3.7500   -3.8971    0.0000 C   0  0  0  0  0  0  0  0  0  0  0  0
    5.2500   -3.8971    0.0000 C   0  0  0  0  0  0  0  0  0  0  0  0
    6.0000   -2.5981    0.0000 N   0  0  0  0  0  0  0  0  0  0  0  0
    7.5000   -2.5981    0.0000 C   0  0  0  0  0  0  0  0  0  0  0  0
    8.2500   -1.2990    0.0000 O   0  0  0  0  0  0  0  0  0  0  0  0
    8.2500   -3.8971    0.0000 C   0  0  0  0  0  0  0  0  0  0  0  0
    7.5000   -5.1962    0.0000 C   0  0  0  0  0  0  0  0  0  0  0  0
    6.7500   -6.4952    0.0000 N   0  0  0  0  0  0  0  0  0  0  0  0
    9.7500   -3.8971    0.0000 C   0  0  0  0  0  0  0  0  0  0  0  0
   10.5000   -5.1962    0.0000 C   0  0  0  0  0  0  0  0  0  0  0  0
   11.7990   -4.4462    0.0000 C   0  0  0  0  0  0  0  0  0  0  0  0
    9.2010   -5.9462    0.0000 C   0  0  0  0  0  0  0  0  0  0  0  0
   11.2500   -6.4952    0.0000 C   0  0  0  0  0  0  0  0  0  0  0  0
    5.2500   -1.2990    0.0000 C   0  0  0  0  0  0  0  0  0  0  0  0
    6.0000    0.0000    0.0000 C   0  0  0  0  0  0  0  0  0  0  0  0
    5.2500    1.2990    0.0000 C   0  0  0  0  0  0  0  0  0  0  0  0
    4.5000    2.5981    0.0000 N   0  0  0  0  0  0  0  0  0  0  0  0
    3.7500   -1.2990    0.0000 C   0  0  0  0  0  0  0  0  0  0  0  0
    0.7500   -3.8971    0.0000 N   0  0  0  0  0  0  0  0  0  0  0  0
    1.5000    0.0000    0.0000 C   0  0  0  0  0  0  0  0  0  0  0  0
    0.7500    1.2990    0.0000 C   0  0  0  0  0  0  0  0  0  0  0  0
   -0.7500    1.2990    0.0000 N   0  0  0  0  0  0  0  0  0  0  0  0
   -1.5000    2.5981    0.0000 C   0  0  0  0  0  0  0  0  0  0  0  0
   -3.0000    2.5981    0.0000 C   0  0  0  0  0  0  0  0  0  0  0  0
   -3.7500    3.8971    0.0000 C   0  0  0  0  0  0  0  0  0  0  0  0
   -3.0000    5.1962    0.0000 C   0  0  0  0  0  0  0  0  0  0  0  0
   -1.5000    5.1962    0.0000 C   0  0  0  0  0  0  0  0  0  0  0  0
   -0.7500    6.4952    0.0000 C   0  0  0  0  0  0  0  0  0  0  0  0
    0.7500    6.4952    0.0000 C   0  0  0  0  0  0  0  0  0  0  0  0
    1.5000    5.1962    0.0000 C   0  0  0  0  0  0  0  0  0  0  0  0
    0.7500    3.8971    0.0000 C   0  0  0  0  0  0  0  0  0  0  0  0
    1.5000    2.5981    0.0000 Cl  0  0  0  0  0  0  0  0  0  0  0  0
   -0.7500    3.8971    0.0000 C   0  0  0  0  0  0  0  0  0  0  0  0
   -1.5000    0.0000    0.0000 C   0  0  0  0  0  0  0  0  0  0  0  0
  1  2  1  0
  2  3  1  0
  3  4  1  0
  4  5  1  0
  5  6  1  0
  6  7  1  6
  7  8  1  0
  8  9  1  0
  9 10  2  0
 10 11  1  0
 11 12  2  0
 12 13  1  0
 13 14  1  0
 14 15  1  0
 15 16  1  0
 16 17  1  0
 17 18  1  0
 18 19  2  0
 18 20  1  0
 20 21  1  0
 21 22  3  0
 20 23  2  3
 23 24  1  0
 24 25  1  0
 24 26  1  0
 24 27  1  0
 17 28  1  0
 28 29  1  6
 29 30  1  0
 30 31  3  0
 28 32  1  0
 13 33  2  0
 12 34  1  0
 34 35  1  0
 35 36  1  0
 36 37  1  0
 37 38  2  0
 38 39  1  0
 39 40  2  0
 40 41  1  0
 41 42  2  0
 42 43  1  0
 43 44  2  0
 44 45  1  0
 45 46  1  0
 45 47  2  0
 36 48  1  0
  6  2  1  0
 33  9  1  0
 47 37  1  0
 48 11  1  0
 32 14  1  0
 47 41  1  0
M  END
>  <molecule_chembl_id>  (169) 
CHEMBL5185805

>  <canonical_smiles>  (169) 
CN1CCC[C@H]1COc1nc2c(c(N3CCN(C(=O)C(C#N)=CC(C)(C)C)[C@@H](CC#N)C3)n1)CCN(c1cccc3cccc(Cl)c13)C2

>  <pchembl_value_mean>  (169) 
6.19

>  <inchi>  (169) 
InChI=1S/C37H43ClN8O2/c1-37(2,3)20-26(21-40)35(47)46-19-18-45(22-27(46)13-15-39)34-29-14-17-44(32-12-6-9-25-8-5-11-30(38)33(25)32)23-31(29)41-36(42-34)48-24-28-10-7-16-43(28)4/h5-6,8-9,11-12,20,27-28H,7,10,13-14,16-19,22-24H2,1-4H3/t27-,28-/m0/s1

$$$$

     RDKit          2D

158167  0  0  0  0  0  0  0  0999 V2000
   10.7457  -10.5769    0.0000 C   0  0  0  0  0  0  0  0  0  0  0  0
    9.2499  -10.6890    0.0000 C   0  0  0  0  0  0  0  0  0  0  0  0
    8.5991  -12.0404    0.0000 N   0  0  0  0  0  0  0  0  0  0  0  0
    7.1033  -12.1525    0.0000 C   0  0  0  0  0  0  0  0  0  0  0  0
    6.2583  -10.9132    0.0000 O   0  0  0  0  0  0  0  0  0  0  0  0
    6.4525  -13.5040    0.0000 C   0  0  0  0  0  0  0  0  0  0  0  0
    7.2975  -14.7434    0.0000 C   0  0  0  0  0  0  0  0  0  0  0  0
    8.7933  -14.6313    0.0000 C   0  0  0  0  0  0  0  0  0  0  0  0
    9.6382  -15.8706    0.0000 C   0  0  0  0  0  0  0  0  0  0  0  0
   11.1341  -15.7585    0.0000 C   0  0  0  0  0  0  0  0  0  0  0  0
   11.7849  -14.4071    0.0000 C   0  0  0  0  0  0  0  0  0  0  0  0
   10.9399  -13.1677    0.0000 C   0  0  0  0  0  0  0  0  0  0  0  0
    9.4441  -13.2798    0.0000 C   0  0  0  0  0  0  0  0  0  0  0  0
    4.9567  -13.6161    0.0000 N   0  0  0  0  0  0  0  0  0  0  0  0
    4.1117  -12.3767    0.0000 C   0  0  0  0  0  0  0  0  0  0  0  0
    4.7625  -11.0253    0.0000 O   0  0  0  0  0  0  0  0  0  0  0  0
    2.6159  -12.4888    0.0000 C   0  0  0  0  0  0  0  0  0  0  0  0
    1.9651  -13.8403    0.0000 C   0  0  0  0  0  0  0  0  0  0  0  0
    2.8100  -15.0796    0.0000 C   0  0  0  0  0  0  0  0  0  0  0  0
    2.1592  -16.4311    0.0000 C   0  0  0  0  0  0  0  0  0  0  0  0
    3.0042  -17.6705    0.0000 N   0  0  0  0  0  0  0  0  0  0  0  0
    2.3534  -19.0219    0.0000 C   0  0  0  0  0  0  0  0  0  0  0  0
    0.8576  -19.1340    0.0000 N   0  0  0  0  0  0  0  0  0  0  0  0
    3.1984  -20.2613    0.0000 N   0  0  0  0  0  0  0  0  0  0  0  0
    1.7709  -11.2495    0.0000 N   0  0  0  0  0  0  0  0  0  0  0  0
    2.4217   -9.8980    0.0000 C   0  0  0  0  0  0  0  0  0  0  0  0
    3.9175   -9.7859    0.0000 O   0  0  0  0  0  0  0  0  0  0  0  0
    1.5768   -8.6587    0.0000 C   0  0  0  0  0  0  0  0  0  0  0  0
    0.0810   -8.7708    0.0000 C   0  0  0  0  0  0  0  0  0  0  0  0
   -0.5699  -10.1222    0.0000 C   0  0  0  0  0  0  0  0  0  0  0  0
   -2.0657  -10.2343    0.0000 C   0  0  0  0  0  0  0  0  0  0  0  0
   -2.7165  -11.5858    0.0000 N   0  0  0  0  0  0  0  0  0  0  0  0
    2.2276   -7.3072    0.0000 N   0  0  0  0  0  0  0  0  0  0  0  0
    3.7234   -7.1951    0.0000 C   0  0  0  0  0  0  0  0  0  0  0  0
    4.5684   -8.4345    0.0000 O   0  0  0  0  0  0  0  0  0  0  0  0
    4.3742   -5.8437    0.0000 C   0  0  0  0  0  0  0  0  0  0  0  0
    3.1041   -5.0456    0.0000 C   0  0  0  0  0  0  0  0  0  0  0  0
    2.0435   -3.9849    0.0000 N   0  0  0  0  0  0  0  0  0  0  0  0
    1.2454   -2.7149    0.0000 C   0  0  0  0  0  0  0  0  0  0  0  0
   -0.1060   -3.3657    0.0000 O   0  0  0  0  0  0  0  0  0  0  0  0
    0.7500   -1.2990    0.0000 C   0  0  0  0  0  0  0  0  0  0  0  0
    1.5000    0.0000    0.0000 C   0  0  0  0  0  0  0  0  0  0  0  0
    0.7500    1.2990    0.0000 C   0  0  0  0  0  0  0  0  0  0  0  0
   -0.7500    1.2990    0.0000 C   0  0  0  0  0  0  0  0  0  0  0  0
   -1.5000    0.0000    0.0000 C   0  0  0  0  0  0  0  0  0  0  0  0
   -0.7500   -1.2990    0.0000 C   0  0  0  0  0  0  0  0  0  0  0  0
   -2.7514    0.8271    0.0000 C   0  0  0  0  0  0  0  0  0  0  0  0
   -3.7181   -0.3198    0.0000 O   0  0  0  0  0  0  0  0  0  0  0  0
   -3.7782    1.9205    0.0000 N   0  0  0  0  0  0  0  0  0  0  0  0
   -4.5253    3.2212    0.0000 C   0  0  0  0  0  0  0  0  0  0  0  0
   -5.9040    2.6302    0.0000 C   0  0  0  0  0  0  0  0  0  0  0  0
   -6.0815    1.1408    0.0000 C   0  0  0  0  0  0  0  0  0  0  0  0
   -4.8803    0.2423    0.0000 C   0  0  0  0  0  0  0  0  0  0  0  0
   -5.0578   -1.2471    0.0000 C   0  0  0  0  0  0  0  0  0  0  0  0
   -6.4365   -1.8381    0.0000 C   0  0  0  0  0  0  0  0  0  0  0  0
   -6.6140   -3.3276    0.0000 C   0  0  0  0  0  0  0  0  0  0  0  0
   -7.9927   -3.9186    0.0000 C   0  0  0  0  0  0  0  0  0  0  0  0
   -9.1939   -3.0201    0.0000 C   0  0  0  0  0  0  0  0  0  0  0  0
   -9.0163   -1.5307    0.0000 C   0  0  0  0  0  0  0  0  0  0  0  0
   -7.6377   -0.9397    0.0000 C   0  0  0  0  0  0  0  0  0  0  0  0
   -7.4602    0.5498    0.0000 C   0  0  0  0  0  0  0  0  0  0  0  0
   -4.9522    4.6592    0.0000 C   0  0  0  0  0  0  0  0  0  0  0  0
   -6.4300    4.4021    0.0000 O   0  0  0  0  0  0  0  0  0  0  0  0
   -5.0361    6.1568    0.0000 N   0  0  0  0  0  0  0  0  0  0  0  0
   -4.7722    7.6335    0.0000 C   0  0  0  0  0  0  0  0  0  0  0  0
   -6.2082    8.0669    0.0000 C   0  0  0  0  0  0  0  0  0  0  0  0
   -6.5509    9.5273    0.0000 O   0  0  0  0  0  0  0  0  0  0  0  0
   -4.1750    9.0094    0.0000 C   0  0  0  0  0  0  0  0  0  0  0  0
   -5.4723    9.7624    0.0000 O   0  0  0  0  0  0  0  0  0  0  0  0
   -3.2765   10.2106    0.0000 N   0  0  0  0  0  0  0  0  0  0  0  0
   -2.1253   11.1722    0.0000 C   0  0  0  0  0  0  0  0  0  0  0  0
   -2.9467   12.4273    0.0000 C   0  0  0  0  0  0  0  0  0  0  0  0
   -4.4444   12.3434    0.0000 C   0  0  0  0  0  0  0  0  0  0  0  0
   -5.2658   13.5985    0.0000 N   0  0  0  0  0  0  0  0  0  0  0  0
   -5.1206   11.0045    0.0000 O   0  0  0  0  0  0  0  0  0  0  0  0
   -0.7833   11.8423    0.0000 C   0  0  0  0  0  0  0  0  0  0  0  0
   -1.2931   13.2530    0.0000 O   0  0  0  0  0  0  0  0  0  0  0  0
    0.6770   12.1849    0.0000 N   0  0  0  0  0  0  0  0  0  0  0  0
    2.1770   12.1815    0.0000 C   0  0  0  0  0  0  0  0  0  0  0  0
    2.3546   13.6710    0.0000 C   0  0  0  0  0  0  0  0  0  0  0  0
    3.7332   14.2620    0.0000 C   0  0  0  0  0  0  0  0  0  0  0  0
    5.0217   13.4940    0.0000 C   0  0  0  0  0  0  0  0  0  0  0  0
    6.1503   14.4821    0.0000 S   0  0  0  0  0  0  0  0  0  0  0  0
    5.5593   15.8608    0.0000 C   0  0  0  0  0  0  0  0  0  0  0  0
    6.1884   17.2225    0.0000 C   0  0  0  0  0  0  0  0  0  0  0  0
    5.3236   18.4481    0.0000 C   0  0  0  0  0  0  0  0  0  0  0  0
    3.8298   18.3121    0.0000 C   0  0  0  0  0  0  0  0  0  0  0  0
    3.2007   16.9504    0.0000 C   0  0  0  0  0  0  0  0  0  0  0  0
    4.0655   15.7247    0.0000 C   0  0  0  0  0  0  0  0  0  0  0  0
    3.6358   11.8323    0.0000 C   0  0  0  0  0  0  0  0  0  0  0  0
    4.1520   13.2407    0.0000 O   0  0  0  0  0  0  0  0  0  0  0  0
    4.9747   11.1561    0.0000 N   0  0  0  0  0  0  0  0  0  0  0  0
    6.1216   10.1893    0.0000 C   0  0  0  0  0  0  0  0  0  0  0  0
    7.2150   11.2162    0.0000 C   0  0  0  0  0  0  0  0  0  0  0  0
    8.6510   10.7827    0.0000 C   0  0  0  0  0  0  0  0  0  0  0  0
    9.7444   11.8096    0.0000 C   0  0  0  0  0  0  0  0  0  0  0  0
    9.4018   13.2699    0.0000 C   0  0  0  0  0  0  0  0  0  0  0  0
    7.9658   13.7034    0.0000 C   0  0  0  0  0  0  0  0  0  0  0  0
    6.8724   12.6765    0.0000 C   0  0  0  0  0  0  0  0  0  0  0  0
    7.0146    8.9841    0.0000 C   0  0  0  0  0  0  0  0  0  0  0  0
    8.3154    9.7311    0.0000 O   0  0  0  0  0  0  0  0  0  0  0  0
    7.6056    7.6054    0.0000 N   0  0  0  0  0  0  0  0  0  0  0  0
    8.7712    6.7221    0.0000 C   0  0  0  0  0  0  0  0  0  0  0  0
    7.2806    6.1901    0.0000 C   0  0  0  0  0  0  0  0  0  0  0  0
    5.9458    6.0397    0.0000 C   0  0  0  0  0  0  0  0  0  0  0  0
    4.6779    5.5960    0.0000 C   0  0  0  0  0  0  0  0  0  0  0  0
    3.5406    4.8814    0.0000 C   0  0  0  0  0  0  0  0  0  0  0  0
    2.5907    3.9316    0.0000 N   0  0  0  0  0  0  0  0  0  0  0  0
    1.5931    2.4904    0.0000 C   0  0  0  0  0  0  0  0  0  0  0  0
   -0.1060    3.7487    0.0000 O   0  0  0  0  0  0  0  0  0  0  0  0
   10.1870    6.2267    0.0000 C   0  0  0  0  0  0  0  0  0  0  0  0
   10.8378    7.5782    0.0000 O   0  0  0  0  0  0  0  0  0  0  0  0
   11.4571    5.4287    0.0000 N   0  0  0  0  0  0  0  0  0  0  0  0
   12.5177    4.3680    0.0000 C   0  0  0  0  0  0  0  0  0  0  0  0
   13.6905    5.3032    0.0000 C   0  0  0  0  0  0  0  0  0  0  0  0
   15.0868    4.7552    0.0000 C   0  0  0  0  0  0  0  0  0  0  0  0
   15.3104    3.2720    0.0000 C   0  0  0  0  0  0  0  0  0  0  0  0
   16.7067    2.7240    0.0000 C   0  0  0  0  0  0  0  0  0  0  0  0
   17.8794    3.6592    0.0000 C   0  0  0  0  0  0  0  0  0  0  0  0
   17.6559    5.1425    0.0000 C   0  0  0  0  0  0  0  0  0  0  0  0
   16.2596    5.6905    0.0000 C   0  0  0  0  0  0  0  0  0  0  0  0
   13.3158    3.0979    0.0000 C   0  0  0  0  0  0  0  0  0  0  0  0
   14.6672    3.7487    0.0000 O   0  0  0  0  0  0  0  0  0  0  0  0
   13.8112    1.6821    0.0000 N   0  0  0  0  0  0  0  0  0  0  0  0
   13.9792    0.1915    0.0000 C   0  0  0  0  0  0  0  0  0  0  0  0
   15.4792    0.1915    0.0000 C   0  0  0  0  0  0  0  0  0  0  0  0
   16.2292   -1.1075    0.0000 C   0  0  0  0  0  0  0  0  0  0  0  0
   17.7292   -1.1075    0.0000 C   0  0  0  0  0  0  0  0  0  0  0  0
   18.4792   -2.4065    0.0000 N   0  0  0  0  0  0  0  0  0  0  0  0
   18.4792    0.1915    0.0000 O   0  0  0  0  0  0  0  0  0  0  0  0
   13.8112   -1.2990    0.0000 C   0  0  0  0  0  0  0  0  0  0  0  0
   15.2736   -1.6328    0.0000 O   0  0  0  0  0  0  0  0  0  0  0  0
   13.3158   -2.7149    0.0000 N   0  0  0  0  0  0  0  0  0  0  0  0
   12.5177   -3.9849    0.0000 C   0  0  0  0  0  0  0  0  0  0  0  0
   13.6905   -4.9202    0.0000 C   0  0  0  0  0  0  0  0  0  0  0  0
   13.4669   -6.4034    0.0000 C   0  0  0  0  0  0  0  0  0  0  0  0
   14.6397   -7.3387    0.0000 C   0  0  0  0  0  0  0  0  0  0  0  0
   14.4161   -8.8219    0.0000 N   0  0  0  0  0  0  0  0  0  0  0  0
   15.5889   -9.7571    0.0000 C   0  0  0  0  0  0  0  0  0  0  0  0
   16.9852   -9.2091    0.0000 N   0  0  0  0  0  0  0  0  0  0  0  0
   15.3653  -11.2404    0.0000 N   0  0  0  0  0  0  0  0  0  0  0  0
   11.4571   -5.0456    0.0000 C   0  0  0  0  0  0  0  0  0  0  0  0
   12.3923   -6.2184    0.0000 O   0  0  0  0  0  0  0  0  0  0  0  0
   10.1870   -5.8437    0.0000 N   0  0  0  0  0  0  0  0  0  0  0  0
    8.7712   -6.3391    0.0000 C   0  0  0  0  0  0  0  0  0  0  0  0
    9.1050   -7.8015    0.0000 C   0  0  0  0  0  0  0  0  0  0  0  0
    8.0054   -8.8217    0.0000 C   0  0  0  0  0  0  0  0  0  0  0  0
    8.3392  -10.2841    0.0000 C   0  0  0  0  0  0  0  0  0  0  0  0
    7.2396  -11.3044    0.0000 N   0  0  0  0  0  0  0  0  0  0  0  0
    7.5734  -12.7668    0.0000 C   0  0  0  0  0  0  0  0  0  0  0  0
    8.3693  -12.8104    0.0000 N   0  0  0  0  0  0  0  0  0  0  0  0
    6.7533  -14.0228    0.0000 N   0  0  0  0  0  0  0  0  0  0  0  0
    7.2806   -6.5070    0.0000 C   0  0  0  0  0  0  0  0  0  0  0  0
    7.2806   -8.0070    0.0000 O   0  0  0  0  0  0  0  0  0  0  0  0
    5.7900   -6.3391    0.0000 N   0  0  0  0  0  0  0  0  0  0  0  0
    8.4050   -9.4496    0.0000 C   0  0  0  0  0  0  0  0  0  0  0  0
    9.3635   -8.2958    0.0000 N   0  0  0  0  0  0  0  0  0  0  0  0
    6.9092   -9.5617    0.0000 O   0  0  0  0  0  0  0  0  0  0  0  0
  2  1  1  1
  2  3  1  0
  3  4  1  0
  4  5  2  0
  4  6  1  0
  6  7  1  6
  7  8  1  0
  8  9  2  0
  9 10  1  0
 10 11  2  0
 11 12  1  0
 12 13  2  0
  6 14  1  0
 14 15  1  0
 15 16  2  0
 15 17  1  0
 17 18  1  1
 18 19  1  0
 19 20  1  0
 20 21  1  0
 21 22  1  0
 22 23  2  0
 22 24  1  0
 17 25  1  0
 25 26  1  0
 26 27  2  0
 26 28  1  0
 28 29  1  6
 29 30  1  0
 30 31  1  0
 31 32  1  0
 28 33  1  0
 33 34  1  0
 34 35  2  0
 36 34  1  6
 36 37  1  0
 37 38  1  0
 38 39  1  0
 39 40  2  0
 39 41  1  0
 41 42  2  0
 42 43  1  0
 43 44  2  0
 44 45  1  0
 45 46  2  0
 45 47  1  0
 47 48  2  0
 47 49  1  0
 49 50  1  0
 50 51  1  6
 51 52  1  0
 52 53  2  0
 53 54  1  0
 54 55  2  0
 55 56  1  0
 56 57  2  0
 57 58  1  0
 58 59  2  0
 59 60  1  0
 60 61  2  0
 50 62  1  0
 62 63  2  0
 62 64  1  0
 64 65  1  0
 65 66  1  1
 66 67  1  0
 65 68  1  0
 68 69  2  0
 68 70  1  0
 70 71  1  0
 71 72  1  1
 72 73  1  0
 73 74  1  0
 73 75  2  0
 71 76  1  0
 76 77  2  0
 76 78  1  0
 78 79  1  0
 79 80  1  6
 80 81  1  0
 81 82  2  0
 82 83  1  0
 83 84  1  0
 84 85  2  0
 85 86  1  0
 86 87  2  0
 87 88  1  0
 88 89  2  0
 79 90  1  0
 90 91  2  0
 90 92  1  0
 92 93  1  0
 93 94  1  1
 94 95  2  0
 95 96  1  0
 96 97  2  0
 97 98  1  0
 98 99  2  0
 93100  1  0
100101  2  0
100102  1  0
103102  1  6
103104  1  0
104105  1  0
105106  1  0
106107  1  0
107108  1  0
108109  1  0
109110  2  0
103111  1  0
111112  2  0
111113  1  0
113114  1  0
114115  1  6
115116  1  0
116117  2  0
117118  1  0
118119  2  0
119120  1  0
120121  2  0
114122  1  0
122123  2  0
122124  1  0
124125  1  0
125126  1  6
126127  1  0
127128  1  0
128129  1  0
128130  2  0
125131  1  0
131132  2  0
131133  1  0
133134  1  0
134135  1  6
135136  1  0
136137  1  0
137138  1  0
138139  1  0
139140  2  0
139141  1  0
134142  1  0
142143  2  0
142144  1  0
144145  1  0
145146  1  1
146147  1  0
147148  1  0
148149  1  0
149150  1  0
150151  2  0
150152  1  0
145153  1  0
153154  2  0
153155  1  0
  2156  1  0
156157  1  0
156158  2  0
 13  8  1  0
155 36  1  0
 46 41  1  0
 61 52  1  0
 89 81  1  0
 99 94  1  0
121116  1  0
109 43  1  0
 60 55  1  0
 89 84  1  0
M  END
>  <molecule_chembl_id>  (170) 
CHEMBL4869496

>  <canonical_smiles>  (170) 
C[C@@H](NC(=O)[C@H](Cc1ccccc1)NC(=O)[C@@H](CCCNC(=N)N)NC(=O)[C@H](CCCN)NC(=O)[C@@H]1CNC(=O)c2cc3cc(c2)C(=O)N[C@H](Cc2ccc4ccccc4c2)C(=O)N[C@@H](CO)C(=O)N[C@@H](CC(N)=O)C(=O)N[C@H](Cc2csc4ccccc24)C(=O)N[C@@H](c2ccccc2)C(=O)N[C@@H](CCCCNC3=O)C(=O)N[C@H](Cc2ccccc2)C(=O)N[C@H](CCC(N)=O)C(=O)N[C@H](CCCNC(=N)N)C(=O)N[C@@H](CCCNC(=N)N)C(=O)N1)C(N)=O

>  <pchembl_value_mean>  (170) 
6.19

>  <inchi>  (170) 
InChI=1S/C106H136N30O21S/c1-57(86(110)140)122-96(150)75(46-58-21-5-2-6-22-58)130-93(147)72(33-19-43-119-105(113)114)123-90(144)70(31-17-40-107)126-101(155)80-54-121-88(142)65-49-64-50-66(51-65)89(143)129-77(48-60-36-37-61-25-11-12-28-63(61)45-60)98(152)135-81(55-137)102(156)133-79(53-84(109)139)99(153)132-78(52-67-56-158-82-35-14-13-29-68(67)82)100(154)136-85(62-26-9-4-10-27-62)103(157)128-69(30-15-16-41-117-87(64)141)92(146)131-76(47-59-23-7-3-8-24-59)97(151)127-74(38-39-83(108)138)95(149)125-71(32-18-42-118-104(111)112)91(145)124-73(94(148)134-80)34-20-44-120-106(115)116/h2-14,21-29,35-37,45,49-51,56-57,69-81,85,137H,15-20,30-34,38-44,46-48,52-55,107H2,1H3,(H2,108,138)(H2,109,139)(H2,110,140)(H,117,141)(H,121,142)(H,122,150)(H,123,144)(H,124,145)(H,125,149)(H,126,155)(H,127,151)(H,128,157)(H,129,143)(H,130,147)(H,131,146)(H,132,153)(H,133,156)(H,134,148)(H,135,152)(H,136,154)(H4,111,112,118)(H4,113,114,119)(H4,115,116,120)/t57-,69+,70+,71-,72-,73+,74-,75+,76-,77-,78-,79+,80+,81+,85+/m1/s1

$$$$

     RDKit          2D

 45 51  0  0  0  0  0  0  0  0999 V2000
    4.8107  -10.9304    0.0000 C   0  0  0  0  0  0  0  0  0  0  0  0
    4.0607   -9.6313    0.0000 C   0  0  0  0  0  0  0  0  0  0  0  0
    4.8107   -8.3323    0.0000 C   0  0  0  0  0  0  0  0  0  0  0  0
    6.3107   -8.3323    0.0000 O   0  0  0  0  0  0  0  0  0  0  0  0
    4.0607   -7.0333    0.0000 N   0  0  0  0  0  0  0  0  0  0  0  0
    2.6118   -6.6450    0.0000 C   0  0  0  0  0  0  0  0  0  0  0  0
    3.0000   -5.1962    0.0000 C   0  0  0  0  0  0  0  0  0  0  0  0
    3.7500   -3.8971    0.0000 C   0  0  0  0  0  0  0  0  0  0  0  0
    3.0000   -2.5981    0.0000 C   0  0  0  0  0  0  0  0  0  0  0  0
    1.5000   -2.5981    0.0000 N   0  0  0  0  0  0  0  0  0  0  0  0
    0.7500   -1.2990    0.0000 C   0  0  0  0  0  0  0  0  0  0  0  0
    1.5000    0.0000    0.0000 N   0  0  0  0  0  0  0  0  0  0  0  0
    0.7500    1.2990    0.0000 C   0  0  0  0  0  0  0  0  0  0  0  0
    1.5000    2.5981    0.0000 O   0  0  0  0  0  0  0  0  0  0  0  0
    3.0000    2.5981    0.0000 C   0  0  0  0  0  0  0  0  0  0  0  0
    3.7500    3.8971    0.0000 C   0  0  0  0  0  0  0  0  0  0  0  0
    5.2500    3.8971    0.0000 C   0  0  0  0  0  0  0  0  0  0  0  0
    6.0000    5.1962    0.0000 N   0  0  0  0  0  0  0  0  0  0  0  0
    7.5000    5.1962    0.0000 C   0  0  0  0  0  0  0  0  0  0  0  0
    8.2500    6.4952    0.0000 C   0  0  0  0  0  0  0  0  0  0  0  0
    7.5000    7.7942    0.0000 O   0  0  0  0  0  0  0  0  0  0  0  0
    6.0000    7.7942    0.0000 C   0  0  0  0  0  0  0  0  0  0  0  0
    5.2500    6.4952    0.0000 C   0  0  0  0  0  0  0  0  0  0  0  0
   -0.7500    1.2990    0.0000 N   0  0  0  0  0  0  0  0  0  0  0  0
   -1.5000    0.0000    0.0000 C   0  0  0  0  0  0  0  0  0  0  0  0
   -3.0000    0.0000    0.0000 C   0  0  0  0  0  0  0  0  0  0  0  0
   -3.7500    1.2990    0.0000 F   0  0  0  0  0  0  0  0  0  0  0  0
   -3.7500   -1.2990    0.0000 C   0  0  0  0  0  0  0  0  0  0  0  0
   -5.2500   -1.2990    0.0000 C   0  0  0  0  0  0  0  0  0  0  0  0
   -6.0000    0.0000    0.0000 C   0  0  0  0  0  0  0  0  0  0  0  0
   -5.2500    1.2990    0.0000 C   0  0  0  0  0  0  0  0  0  0  0  0
   -7.5000    0.0000    0.0000 C   0  0  0  0  0  0  0  0  0  0  0  0
   -8.2500   -1.2990    0.0000 C   0  0  0  0  0  0  0  0  0  0  0  0
   -7.5000   -2.5981    0.0000 C   0  0  0  0  0  0  0  0  0  0  0  0
   -7.9635   -4.0247    0.0000 N   0  0  0  0  0  0  0  0  0  0  0  0
   -6.7500   -4.9063    0.0000 N   0  0  0  0  0  0  0  0  0  0  0  0
   -5.5365   -4.0247    0.0000 C   0  0  0  0  0  0  0  0  0  0  0  0
   -6.0000   -2.5981    0.0000 C   0  0  0  0  0  0  0  0  0  0  0  0
   -3.0000   -2.5981    0.0000 C   0  0  0  0  0  0  0  0  0  0  0  0
   -3.7500   -3.8971    0.0000 Cl  0  0  0  0  0  0  0  0  0  0  0  0
   -1.5000   -2.5981    0.0000 C   0  0  0  0  0  0  0  0  0  0  0  0
   -0.7500   -1.2990    0.0000 C   0  0  0  0  0  0  0  0  0  0  0  0
    0.7500   -3.8971    0.0000 C   0  0  0  0  0  0  0  0  0  0  0  0
    1.5000   -5.1962    0.0000 C   0  0  0  0  0  0  0  0  0  0  0  0
    4.4489   -5.5844    0.0000 C   0  0  0  0  0  0  0  0  0  0  0  0
  1  2  2  0
  2  3  1  0
  3  4  2  0
  3  5  1  0
  5  6  1  0
  6  7  1  0
  7  8  1  0
  8  9  1  0
  9 10  1  0
 10 11  1  0
 11 12  2  0
 12 13  1  0
 13 14  1  0
 14 15  1  0
 15 16  1  0
 16 17  1  0
 17 18  1  0
 18 19  1  0
 19 20  1  0
 20 21  1  0
 21 22  1  0
 22 23  1  0
 13 24  2  0
 24 25  1  0
 25 26  2  0
 26 27  1  0
 26 28  1  0
 28 29  1  0
 29 30  2  0
 30 31  1  0
 30 32  1  0
 32 33  2  0
 33 34  1  0
 34 35  1  0
 35 36  1  0
 36 37  2  0
 37 38  1  0
 28 39  2  0
 39 40  1  0
 39 41  1  0
 41 42  2  0
 10 43  1  0
 43 44  1  0
  7 45  1  0
 45  5  1  0
 44  7  1  0
 42 11  1  0
 23 18  1  0
 42 25  1  0
 38 29  1  0
 38 34  2  0
M  END
>  <molecule_chembl_id>  (171) 
CHEMBL5177793

>  <canonical_smiles>  (171) 
C=CC(=O)N1CC2(CCN(c3nc(OCCCN4CCOCC4)nc4c(F)c(-c5c(C)ccc6[nH]ncc56)c(Cl)cc34)CC2)C1

>  <pchembl_value_mean>  (171) 
6.19

>  <inchi>  (171) 
InChI=1S/C33H37ClFN7O3/c1-3-26(43)42-19-33(20-42)7-10-41(11-8-33)31-22-17-24(34)28(27-21(2)5-6-25-23(27)18-36-39-25)29(35)30(22)37-32(38-31)45-14-4-9-40-12-15-44-16-13-40/h3,5-6,17-18H,1,4,7-16,19-20H2,2H3,(H,36,39)

$$$$

     RDKit          2D

155164  0  0  0  0  0  0  0  0999 V2000
   15.4792   -0.1915    0.0000 C   0  0  0  0  0  0  0  0  0  0  0  0
   13.9792   -0.1915    0.0000 C   0  0  0  0  0  0  0  0  0  0  0  0
   13.8112   -1.6821    0.0000 N   0  0  0  0  0  0  0  0  0  0  0  0
   13.3158   -3.0979    0.0000 C   0  0  0  0  0  0  0  0  0  0  0  0
   14.6672   -3.7487    0.0000 O   0  0  0  0  0  0  0  0  0  0  0  0
   12.5177   -4.3680    0.0000 C   0  0  0  0  0  0  0  0  0  0  0  0
   13.6905   -5.3032    0.0000 C   0  0  0  0  0  0  0  0  0  0  0  0
   13.4669   -6.7865    0.0000 C   0  0  0  0  0  0  0  0  0  0  0  0
   12.0706   -7.3345    0.0000 C   0  0  0  0  0  0  0  0  0  0  0  0
   11.8471   -8.8177    0.0000 C   0  0  0  0  0  0  0  0  0  0  0  0
   13.0198   -9.7530    0.0000 C   0  0  0  0  0  0  0  0  0  0  0  0
   14.4161   -9.2050    0.0000 C   0  0  0  0  0  0  0  0  0  0  0  0
   14.6397   -7.7217    0.0000 C   0  0  0  0  0  0  0  0  0  0  0  0
   11.4571   -5.4287    0.0000 N   0  0  0  0  0  0  0  0  0  0  0  0
   10.1870   -6.2267    0.0000 C   0  0  0  0  0  0  0  0  0  0  0  0
   10.8378   -7.5782    0.0000 O   0  0  0  0  0  0  0  0  0  0  0  0
    8.7712   -6.7221    0.0000 C   0  0  0  0  0  0  0  0  0  0  0  0
    7.2806   -6.8901    0.0000 C   0  0  0  0  0  0  0  0  0  0  0  0
    5.7900   -6.7221    0.0000 C   0  0  0  0  0  0  0  0  0  0  0  0
    4.3742   -6.2267    0.0000 C   0  0  0  0  0  0  0  0  0  0  0  0
    3.1041   -5.4287    0.0000 C   0  0  0  0  0  0  0  0  0  0  0  0
    2.0435   -4.3680    0.0000 N   0  0  0  0  0  0  0  0  0  0  0  0
    1.2454   -3.0979    0.0000 C   0  0  0  0  0  0  0  0  0  0  0  0
   -0.1060   -3.7487    0.0000 O   0  0  0  0  0  0  0  0  0  0  0  0
    0.7500   -1.2990    0.0000 C   0  0  0  0  0  0  0  0  0  0  0  0
    1.5000    0.0000    0.0000 C   0  0  0  0  0  0  0  0  0  0  0  0
    0.7500    1.2990    0.0000 C   0  0  0  0  0  0  0  0  0  0  0  0
   -0.7500    1.2990    0.0000 C   0  0  0  0  0  0  0  0  0  0  0  0
   -1.5000    0.0000    0.0000 C   0  0  0  0  0  0  0  0  0  0  0  0
   -0.7500   -1.2990    0.0000 C   0  0  0  0  0  0  0  0  0  0  0  0
   -2.3002   -1.3623    0.0000 C   0  0  0  0  0  0  0  0  0  0  0  0
   -3.7181    0.3198    0.0000 O   0  0  0  0  0  0  0  0  0  0  0  0
   -3.2158   -2.3372    0.0000 N   0  0  0  0  0  0  0  0  0  0  0  0
   -3.8819   -3.4970    0.0000 C   0  0  0  0  0  0  0  0  0  0  0  0
   -5.9040   -2.6302    0.0000 C   0  0  0  0  0  0  0  0  0  0  0  0
   -6.0815   -1.1408    0.0000 C   0  0  0  0  0  0  0  0  0  0  0  0
   -4.8803   -0.2423    0.0000 C   0  0  0  0  0  0  0  0  0  0  0  0
   -5.0578    1.2471    0.0000 C   0  0  0  0  0  0  0  0  0  0  0  0
   -6.4365    1.8381    0.0000 C   0  0  0  0  0  0  0  0  0  0  0  0
   -6.6140    3.3276    0.0000 C   0  0  0  0  0  0  0  0  0  0  0  0
   -7.9927    3.9186    0.0000 C   0  0  0  0  0  0  0  0  0  0  0  0
   -9.1939    3.0201    0.0000 C   0  0  0  0  0  0  0  0  0  0  0  0
   -9.0163    1.5307    0.0000 C   0  0  0  0  0  0  0  0  0  0  0  0
   -7.6377    0.9397    0.0000 C   0  0  0  0  0  0  0  0  0  0  0  0
   -7.4602   -0.5498    0.0000 C   0  0  0  0  0  0  0  0  0  0  0  0
   -4.2626   -4.7792    0.0000 C   0  0  0  0  0  0  0  0  0  0  0  0
   -6.4300   -4.4021    0.0000 O   0  0  0  0  0  0  0  0  0  0  0  0
   -4.3373   -6.1146    0.0000 N   0  0  0  0  0  0  0  0  0  0  0  0
   -4.1021   -7.4312    0.0000 C   0  0  0  0  0  0  0  0  0  0  0  0
   -6.2082   -8.0669    0.0000 C   0  0  0  0  0  0  0  0  0  0  0  0
   -7.3016   -7.0400    0.0000 O   0  0  0  0  0  0  0  0  0  0  0  0
   -3.5696   -8.6581    0.0000 C   0  0  0  0  0  0  0  0  0  0  0  0
   -5.4723   -9.7624    0.0000 O   0  0  0  0  0  0  0  0  0  0  0  0
   -2.7685   -9.7291    0.0000 N   0  0  0  0  0  0  0  0  0  0  0  0
   -1.7420  -10.5864    0.0000 C   0  0  0  0  0  0  0  0  0  0  0  0
   -2.9467  -12.4273    0.0000 C   0  0  0  0  0  0  0  0  0  0  0  0
   -4.4444  -12.3434    0.0000 C   0  0  0  0  0  0  0  0  0  0  0  0
   -5.2658  -13.5985    0.0000 N   0  0  0  0  0  0  0  0  0  0  0  0
   -5.1206  -11.0045    0.0000 O   0  0  0  0  0  0  0  0  0  0  0  0
   -0.5454  -11.1840    0.0000 C   0  0  0  0  0  0  0  0  0  0  0  0
   -1.2931  -13.2530    0.0000 O   0  0  0  0  0  0  0  0  0  0  0  0
    0.7567  -11.4895    0.0000 N   0  0  0  0  0  0  0  0  0  0  0  0
    2.0942  -11.4864    0.0000 C   0  0  0  0  0  0  0  0  0  0  0  0
    2.3546  -13.6710    0.0000 C   0  0  0  0  0  0  0  0  0  0  0  0
    1.1534  -14.5694    0.0000 C   0  0  0  0  0  0  0  0  0  0  0  0
   -0.2253  -13.9785    0.0000 C   0  0  0  0  0  0  0  0  0  0  0  0
   -1.4264  -14.8769    0.0000 C   0  0  0  0  0  0  0  0  0  0  0  0
   -1.2489  -16.3664    0.0000 C   0  0  0  0  0  0  0  0  0  0  0  0
   -2.4501  -17.2648    0.0000 C   0  0  0  0  0  0  0  0  0  0  0  0
   -2.2725  -18.7543    0.0000 C   0  0  0  0  0  0  0  0  0  0  0  0
   -0.8939  -19.3453    0.0000 C   0  0  0  0  0  0  0  0  0  0  0  0
    0.3073  -18.4468    0.0000 C   0  0  0  0  0  0  0  0  0  0  0  0
    0.1298  -16.9574    0.0000 C   0  0  0  0  0  0  0  0  0  0  0  0
    1.3309  -16.0589    0.0000 C   0  0  0  0  0  0  0  0  0  0  0  0
    3.3949  -11.1751    0.0000 C   0  0  0  0  0  0  0  0  0  0  0  0
    4.1520  -13.2407    0.0000 O   0  0  0  0  0  0  0  0  0  0  0  0
    4.5887  -10.5721    0.0000 N   0  0  0  0  0  0  0  0  0  0  0  0
    5.6114   -9.7101    0.0000 C   0  0  0  0  0  0  0  0  0  0  0  0
    7.2150  -11.2162    0.0000 C   0  0  0  0  0  0  0  0  0  0  0  0
    6.8724  -12.6765    0.0000 C   0  0  0  0  0  0  0  0  0  0  0  0
    7.9658  -13.7034    0.0000 C   0  0  0  0  0  0  0  0  0  0  0  0
    9.4018  -13.2699    0.0000 C   0  0  0  0  0  0  0  0  0  0  0  0
    9.7444  -11.8096    0.0000 C   0  0  0  0  0  0  0  0  0  0  0  0
    8.6510  -10.7827    0.0000 C   0  0  0  0  0  0  0  0  0  0  0  0
    6.4076   -8.6354    0.0000 C   0  0  0  0  0  0  0  0  0  0  0  0
    8.3154   -9.7311    0.0000 O   0  0  0  0  0  0  0  0  0  0  0  0
    8.1358   -8.0625    0.0000 N   0  0  0  0  0  0  0  0  0  0  0  0
    1.2454    2.7149    0.0000 C   0  0  0  0  0  0  0  0  0  0  0  0
    0.0946    3.1047    0.0000 O   0  0  0  0  0  0  0  0  0  0  0  0
    2.0435    3.9849    0.0000 N   0  0  0  0  0  0  0  0  0  0  0  0
    3.1041    5.0456    0.0000 C   0  0  0  0  0  0  0  0  0  0  0  0
    4.3742    5.8437    0.0000 C   0  0  0  0  0  0  0  0  0  0  0  0
    3.7234    7.1951    0.0000 C   0  0  0  0  0  0  0  0  0  0  0  0
    2.2276    7.3072    0.0000 O   0  0  0  0  0  0  0  0  0  0  0  0
    4.5684    8.4345    0.0000 N   0  0  0  0  0  0  0  0  0  0  0  0
    3.9175    9.7859    0.0000 C   0  0  0  0  0  0  0  0  0  0  0  0
    4.7625   11.0253    0.0000 C   0  0  0  0  0  0  0  0  0  0  0  0
    4.1117   12.3767    0.0000 C   0  0  0  0  0  0  0  0  0  0  0  0
    4.9567   13.6161    0.0000 C   0  0  0  0  0  0  0  0  0  0  0  0
    4.3059   14.9675    0.0000 N   0  0  0  0  0  0  0  0  0  0  0  0
    2.4217    9.8980    0.0000 C   0  0  0  0  0  0  0  0  0  0  0  0
    1.5768    8.6587    0.0000 O   0  0  0  0  0  0  0  0  0  0  0  0
    1.7709   11.2495    0.0000 N   0  0  0  0  0  0  0  0  0  0  0  0
    0.2751   11.3616    0.0000 C   0  0  0  0  0  0  0  0  0  0  0  0
   -0.3757   12.7130    0.0000 C   0  0  0  0  0  0  0  0  0  0  0  0
   -1.8715   12.8251    0.0000 C   0  0  0  0  0  0  0  0  0  0  0  0
   -2.5224   14.1766    0.0000 C   0  0  0  0  0  0  0  0  0  0  0  0
   -4.0182   14.2887    0.0000 N   0  0  0  0  0  0  0  0  0  0  0  0
   -4.6690   15.6401    0.0000 C   0  0  0  0  0  0  0  0  0  0  0  0
   -3.8240   16.8795    0.0000 N   0  0  0  0  0  0  0  0  0  0  0  0
   -6.1648   15.7522    0.0000 N   0  0  0  0  0  0  0  0  0  0  0  0
   -0.5699   10.1222    0.0000 C   0  0  0  0  0  0  0  0  0  0  0  0
    0.0810    8.7708    0.0000 O   0  0  0  0  0  0  0  0  0  0  0  0
   -2.0657   10.2343    0.0000 N   0  0  0  0  0  0  0  0  0  0  0  0
   -2.9107    8.9949    0.0000 C   0  0  0  0  0  0  0  0  0  0  0  0
   -4.4065    9.1070    0.0000 C   0  0  0  0  0  0  0  0  0  0  0  0
   -5.2514    7.8677    0.0000 C   0  0  0  0  0  0  0  0  0  0  0  0
   -6.7473    7.9798    0.0000 C   0  0  0  0  0  0  0  0  0  0  0  0
   -7.5922    6.7404    0.0000 C   0  0  0  0  0  0  0  0  0  0  0  0
   -6.9414    5.3890    0.0000 C   0  0  0  0  0  0  0  0  0  0  0  0
   -5.4456    5.2769    0.0000 C   0  0  0  0  0  0  0  0  0  0  0  0
   -4.6006    6.5162    0.0000 C   0  0  0  0  0  0  0  0  0  0  0  0
   -2.2598    7.6435    0.0000 C   0  0  0  0  0  0  0  0  0  0  0  0
   -0.7640    7.5314    0.0000 O   0  0  0  0  0  0  0  0  0  0  0  0
   -3.1048    6.4041    0.0000 N   0  0  0  0  0  0  0  0  0  0  0  0
   -2.4540    5.0527    0.0000 C   0  0  0  0  0  0  0  0  0  0  0  0
   -3.2990    3.8133    0.0000 C   0  0  0  0  0  0  0  0  0  0  0  0
   -0.9582    4.9406    0.0000 C   0  0  0  0  0  0  0  0  0  0  0  0
   -0.1132    6.1799    0.0000 N   0  0  0  0  0  0  0  0  0  0  0  0
   -0.5684    3.7898    0.0000 O   0  0  0  0  0  0  0  0  0  0  0  0
    5.7900    6.3391    0.0000 N   0  0  0  0  0  0  0  0  0  0  0  0
    7.2806    6.5070    0.0000 C   0  0  0  0  0  0  0  0  0  0  0  0
    7.2806    8.0070    0.0000 O   0  0  0  0  0  0  0  0  0  0  0  0
    8.7712    6.3391    0.0000 C   0  0  0  0  0  0  0  0  0  0  0  0
    9.1050    7.8015    0.0000 C   0  0  0  0  0  0  0  0  0  0  0  0
   10.5383    8.2436    0.0000 C   0  0  0  0  0  0  0  0  0  0  0  0
   10.8721    9.7060    0.0000 C   0  0  0  0  0  0  0  0  0  0  0  0
   12.3055   10.1481    0.0000 N   0  0  0  0  0  0  0  0  0  0  0  0
   12.6392   11.6105    0.0000 C   0  0  0  0  0  0  0  0  0  0  0  0
   11.5397   12.6308    0.0000 N   0  0  0  0  0  0  0  0  0  0  0  0
   14.0726   12.0527    0.0000 N   0  0  0  0  0  0  0  0  0  0  0  0
   10.1870    5.8437    0.0000 N   0  0  0  0  0  0  0  0  0  0  0  0
   11.4571    5.0456    0.0000 C   0  0  0  0  0  0  0  0  0  0  0  0
   12.3923    6.2184    0.0000 O   0  0  0  0  0  0  0  0  0  0  0  0
   12.5177    3.9849    0.0000 C   0  0  0  0  0  0  0  0  0  0  0  0
   13.6905    4.9202    0.0000 C   0  0  0  0  0  0  0  0  0  0  0  0
   15.0868    4.3722    0.0000 C   0  0  0  0  0  0  0  0  0  0  0  0
   16.2596    5.3074    0.0000 C   0  0  0  0  0  0  0  0  0  0  0  0
   17.6559    4.7594    0.0000 N   0  0  0  0  0  0  0  0  0  0  0  0
   18.8286    5.6946    0.0000 C   0  0  0  0  0  0  0  0  0  0  0  0
   18.6050    7.1779    0.0000 N   0  0  0  0  0  0  0  0  0  0  0  0
   20.2249    5.1466    0.0000 N   0  0  0  0  0  0  0  0  0  0  0  0
   13.3158    2.7149    0.0000 N   0  0  0  0  0  0  0  0  0  0  0  0
   13.8112    1.2990    0.0000 C   0  0  0  0  0  0  0  0  0  0  0  0
   15.2736    1.6328    0.0000 O   0  0  0  0  0  0  0  0  0  0  0  0
  2  1  1  6
  2  3  1  0
  3  4  1  0
  4  5  2  0
  4  6  1  0
  6  7  1  1
  7  8  1  0
  8  9  2  0
  9 10  1  0
 10 11  2  0
 11 12  1  0
 12 13  2  0
  6 14  1  0
 14 15  1  0
 15 16  2  0
 15 17  1  0
 17 18  1  0
 18 19  1  0
 19 20  1  0
 20 21  1  0
 21 22  1  0
 22 23  1  0
 23 24  2  0
 23 25  1  0
 25 26  1  0
 26 27  2  0
 27 28  1  0
 28 29  2  0
 29 30  1  0
 29 31  1  0
 31 32  2  0
 31 33  1  0
 33 34  1  0
 34 35  1  1
 35 36  1  0
 36 37  2  0
 37 38  1  0
 38 39  2  0
 39 40  1  0
 40 41  2  0
 41 42  1  0
 42 43  2  0
 43 44  1  0
 44 45  2  0
 34 46  1  0
 46 47  2  0
 46 48  1  0
 48 49  1  0
 49 50  1  6
 50 51  1  0
 49 52  1  0
 52 53  2  0
 52 54  1  0
 54 55  1  0
 55 56  1  6
 56 57  1  0
 57 58  1  0
 57 59  2  0
 55 60  1  0
 60 61  2  0
 60 62  1  0
 62 63  1  0
 63 64  1  1
 64 65  1  0
 65 66  2  0
 66 67  1  0
 67 68  2  0
 68 69  1  0
 69 70  2  0
 70 71  1  0
 71 72  2  0
 72 73  1  0
 73 74  2  0
 63 75  1  0
 75 76  2  0
 75 77  1  0
 77 78  1  0
 78 79  1  6
 79 80  2  0
 80 81  1  0
 81 82  2  0
 82 83  1  0
 83 84  2  0
 78 85  1  0
 85 86  2  0
 85 87  1  0
 27 88  1  0
 88 89  2  0
 88 90  1  0
 90 91  1  0
 91 92  1  0
 92 93  1  1
 93 94  2  0
 93 95  1  0
 95 96  1  0
 96 97  1  6
 97 98  1  0
 98 99  1  0
 99100  1  0
 96101  1  0
101102  2  0
101103  1  0
103104  1  0
104105  1  1
105106  1  0
106107  1  0
107108  1  0
108109  1  0
109110  2  0
109111  1  0
104112  1  0
112113  2  0
112114  1  0
114115  1  0
115116  1  6
116117  1  0
117118  2  0
118119  1  0
119120  2  0
120121  1  0
121122  2  0
115123  1  0
123124  2  0
123125  1  0
125126  1  0
126127  1  1
126128  1  0
128129  1  0
128130  2  0
 92131  1  0
131132  1  0
132133  2  0
132134  1  0
134135  1  6
135136  1  0
136137  1  0
137138  1  0
138139  1  0
139140  2  0
139141  1  0
134142  1  0
142143  1  0
143144  2  0
143145  1  0
145146  1  1
146147  1  0
147148  1  0
148149  1  0
149150  1  0
150151  2  0
150152  1  0
145153  1  0
153154  1  0
154155  2  0
154  2  1  0
 13  8  1  0
 17 87  1  1
122117  1  0
 30 25  2  0
 45 36  1  0
 74 65  1  0
 84 79  1  0
 44 39  1  0
 73 68  1  0
M  END
>  <molecule_chembl_id>  (172) 
CHEMBL4845665

>  <canonical_smiles>  (172) 
C[C@@H]1NC(=O)[C@@H](Cc2ccccc2)NC(=O)[C@@H]2CCCCNC(=O)c3cc(cc(c3)C(=O)N[C@H](Cc3ccc4ccccc4c3)C(=O)N[C@@H](CO)C(=O)N[C@@H](CC(N)=O)C(=O)N[C@H](Cc3ccc4ccccc4c3)C(=O)N[C@@H](c3ccccc3)C(=O)N2)C(=O)NC[C@@H](C(=O)N[C@@H](CCCN)C(=O)N[C@H](CCCNC(=N)N)C(=O)N[C@@H](Cc2ccccc2)C(=O)N[C@H](C)C(N)=O)NC(=O)[C@H](CCCNC(=N)N)NC(=O)[C@@H](CCCNC(=N)N)NC1=O

>  <pchembl_value_mean>  (172) 
6.19

>  <inchi>  (172) 
InChI=1S/C106H135N29O20/c1-58(86(109)138)121-96(148)77(48-60-22-6-3-7-23-60)129-94(146)75(35-20-44-118-105(112)113)124-91(143)73(33-18-41-107)126-101(153)82-56-120-89(141)70-52-69-53-71(54-70)90(142)128-79(50-62-37-39-64-26-12-14-30-67(64)46-62)98(150)134-83(57-136)102(154)132-81(55-84(108)137)99(151)131-80(51-63-38-40-65-27-13-15-31-68(65)47-63)100(152)135-85(66-28-10-5-11-29-66)103(155)127-72(32-16-17-42-116-88(69)140)93(145)130-78(49-61-24-8-4-9-25-61)97(149)122-59(2)87(139)123-74(34-19-43-117-104(110)111)92(144)125-76(95(147)133-82)36-21-45-119-106(114)115/h3-15,22-31,37-40,46-47,52-54,58-59,72-83,85,136H,16-21,32-36,41-45,48-51,55-57,107H2,1-2H3,(H2,108,137)(H2,109,138)(H,116,140)(H,120,141)(H,121,148)(H,122,149)(H,123,139)(H,124,143)(H,125,144)(H,126,153)(H,127,155)(H,128,142)(H,129,146)(H,130,145)(H,131,151)(H,132,154)(H,133,147)(H,134,150)(H,135,152)(H4,110,111,117)(H4,112,113,118)(H4,114,115,119)/t58-,59+,72+,73+,74-,75-,76+,77+,78-,79-,80-,81+,82+,83+,85+/m1/s1

$$$$

     RDKit          2D

156165  0  0  0  0  0  0  0  0999 V2000
   16.2292   -1.4906    0.0000 C   0  0  0  0  0  0  0  0  0  0  0  0
   15.4792   -0.1915    0.0000 C   0  0  0  0  0  0  0  0  0  0  0  0
   13.9792   -0.1915    0.0000 C   0  0  0  0  0  0  0  0  0  0  0  0
   13.8112   -1.6821    0.0000 N   0  0  0  0  0  0  0  0  0  0  0  0
   13.3158   -3.0979    0.0000 C   0  0  0  0  0  0  0  0  0  0  0  0
   14.6672   -3.7487    0.0000 O   0  0  0  0  0  0  0  0  0  0  0  0
   12.5177   -4.3680    0.0000 C   0  0  0  0  0  0  0  0  0  0  0  0
   13.6905   -5.3032    0.0000 C   0  0  0  0  0  0  0  0  0  0  0  0
   13.4669   -6.7865    0.0000 C   0  0  0  0  0  0  0  0  0  0  0  0
   12.0706   -7.3345    0.0000 C   0  0  0  0  0  0  0  0  0  0  0  0
   11.8471   -8.8177    0.0000 C   0  0  0  0  0  0  0  0  0  0  0  0
   13.0198   -9.7530    0.0000 C   0  0  0  0  0  0  0  0  0  0  0  0
   14.4161   -9.2050    0.0000 C   0  0  0  0  0  0  0  0  0  0  0  0
   14.6397   -7.7217    0.0000 C   0  0  0  0  0  0  0  0  0  0  0  0
   11.4571   -5.4287    0.0000 N   0  0  0  0  0  0  0  0  0  0  0  0
   10.1870   -6.2267    0.0000 C   0  0  0  0  0  0  0  0  0  0  0  0
   10.8378   -7.5782    0.0000 O   0  0  0  0  0  0  0  0  0  0  0  0
    8.7712   -6.7221    0.0000 C   0  0  0  0  0  0  0  0  0  0  0  0
    7.2806   -6.8901    0.0000 C   0  0  0  0  0  0  0  0  0  0  0  0
    5.7900   -6.7221    0.0000 C   0  0  0  0  0  0  0  0  0  0  0  0
    4.3742   -6.2267    0.0000 C   0  0  0  0  0  0  0  0  0  0  0  0
    3.1041   -5.4287    0.0000 C   0  0  0  0  0  0  0  0  0  0  0  0
    2.0435   -4.3680    0.0000 N   0  0  0  0  0  0  0  0  0  0  0  0
    1.2454   -3.0979    0.0000 C   0  0  0  0  0  0  0  0  0  0  0  0
   -0.1060   -3.7487    0.0000 O   0  0  0  0  0  0  0  0  0  0  0  0
    0.7500   -1.2990    0.0000 C   0  0  0  0  0  0  0  0  0  0  0  0
    1.5000    0.0000    0.0000 C   0  0  0  0  0  0  0  0  0  0  0  0
    0.7500    1.2990    0.0000 C   0  0  0  0  0  0  0  0  0  0  0  0
   -0.7500    1.2990    0.0000 C   0  0  0  0  0  0  0  0  0  0  0  0
   -1.5000    0.0000    0.0000 C   0  0  0  0  0  0  0  0  0  0  0  0
   -0.7500   -1.2990    0.0000 C   0  0  0  0  0  0  0  0  0  0  0  0
   -2.3002   -1.3623    0.0000 C   0  0  0  0  0  0  0  0  0  0  0  0
   -3.7181    0.3198    0.0000 O   0  0  0  0  0  0  0  0  0  0  0  0
   -3.2158   -2.3372    0.0000 N   0  0  0  0  0  0  0  0  0  0  0  0
   -3.8819   -3.4970    0.0000 C   0  0  0  0  0  0  0  0  0  0  0  0
   -5.9040   -2.6302    0.0000 C   0  0  0  0  0  0  0  0  0  0  0  0
   -6.0815   -1.1408    0.0000 C   0  0  0  0  0  0  0  0  0  0  0  0
   -4.8803   -0.2423    0.0000 C   0  0  0  0  0  0  0  0  0  0  0  0
   -5.0578    1.2471    0.0000 C   0  0  0  0  0  0  0  0  0  0  0  0
   -6.4365    1.8381    0.0000 C   0  0  0  0  0  0  0  0  0  0  0  0
   -6.6140    3.3276    0.0000 C   0  0  0  0  0  0  0  0  0  0  0  0
   -7.9927    3.9186    0.0000 C   0  0  0  0  0  0  0  0  0  0  0  0
   -9.1939    3.0201    0.0000 C   0  0  0  0  0  0  0  0  0  0  0  0
   -9.0163    1.5307    0.0000 C   0  0  0  0  0  0  0  0  0  0  0  0
   -7.6377    0.9397    0.0000 C   0  0  0  0  0  0  0  0  0  0  0  0
   -7.4602   -0.5498    0.0000 C   0  0  0  0  0  0  0  0  0  0  0  0
   -4.2626   -4.7792    0.0000 C   0  0  0  0  0  0  0  0  0  0  0  0
   -6.4300   -4.4021    0.0000 O   0  0  0  0  0  0  0  0  0  0  0  0
   -4.3373   -6.1146    0.0000 N   0  0  0  0  0  0  0  0  0  0  0  0
   -4.1021   -7.4312    0.0000 C   0  0  0  0  0  0  0  0  0  0  0  0
   -6.2082   -8.0669    0.0000 C   0  0  0  0  0  0  0  0  0  0  0  0
   -7.3016   -7.0400    0.0000 O   0  0  0  0  0  0  0  0  0  0  0  0
   -3.5696   -8.6581    0.0000 C   0  0  0  0  0  0  0  0  0  0  0  0
   -5.4723   -9.7624    0.0000 O   0  0  0  0  0  0  0  0  0  0  0  0
   -2.7685   -9.7291    0.0000 N   0  0  0  0  0  0  0  0  0  0  0  0
   -1.7420  -10.5864    0.0000 C   0  0  0  0  0  0  0  0  0  0  0  0
   -2.9467  -12.4273    0.0000 C   0  0  0  0  0  0  0  0  0  0  0  0
   -4.4444  -12.3434    0.0000 C   0  0  0  0  0  0  0  0  0  0  0  0
   -5.2658  -13.5985    0.0000 N   0  0  0  0  0  0  0  0  0  0  0  0
   -5.1206  -11.0045    0.0000 O   0  0  0  0  0  0  0  0  0  0  0  0
   -0.5454  -11.1840    0.0000 C   0  0  0  0  0  0  0  0  0  0  0  0
   -1.2931  -13.2530    0.0000 O   0  0  0  0  0  0  0  0  0  0  0  0
    0.7567  -11.4895    0.0000 N   0  0  0  0  0  0  0  0  0  0  0  0
    2.0942  -11.4864    0.0000 C   0  0  0  0  0  0  0  0  0  0  0  0
    2.3546  -13.6710    0.0000 C   0  0  0  0  0  0  0  0  0  0  0  0
    1.1534  -14.5694    0.0000 C   0  0  0  0  0  0  0  0  0  0  0  0
   -0.2253  -13.9785    0.0000 C   0  0  0  0  0  0  0  0  0  0  0  0
   -1.4264  -14.8769    0.0000 C   0  0  0  0  0  0  0  0  0  0  0  0
   -1.2489  -16.3664    0.0000 C   0  0  0  0  0  0  0  0  0  0  0  0
   -2.4501  -17.2648    0.0000 C   0  0  0  0  0  0  0  0  0  0  0  0
   -2.2725  -18.7543    0.0000 C   0  0  0  0  0  0  0  0  0  0  0  0
   -0.8939  -19.3453    0.0000 C   0  0  0  0  0  0  0  0  0  0  0  0
    0.3073  -18.4468    0.0000 C   0  0  0  0  0  0  0  0  0  0  0  0
    0.1298  -16.9574    0.0000 C   0  0  0  0  0  0  0  0  0  0  0  0
    1.3309  -16.0589    0.0000 C   0  0  0  0  0  0  0  0  0  0  0  0
    3.3949  -11.1751    0.0000 C   0  0  0  0  0  0  0  0  0  0  0  0
    4.1520  -13.2407    0.0000 O   0  0  0  0  0  0  0  0  0  0  0  0
    4.5887  -10.5721    0.0000 N   0  0  0  0  0  0  0  0  0  0  0  0
    5.6114   -9.7101    0.0000 C   0  0  0  0  0  0  0  0  0  0  0  0
    7.2150  -11.2162    0.0000 C   0  0  0  0  0  0  0  0  0  0  0  0
    6.8724  -12.6765    0.0000 C   0  0  0  0  0  0  0  0  0  0  0  0
    7.9658  -13.7034    0.0000 C   0  0  0  0  0  0  0  0  0  0  0  0
    9.4018  -13.2699    0.0000 C   0  0  0  0  0  0  0  0  0  0  0  0
    9.7444  -11.8096    0.0000 C   0  0  0  0  0  0  0  0  0  0  0  0
    8.6510  -10.7827    0.0000 C   0  0  0  0  0  0  0  0  0  0  0  0
    6.4076   -8.6354    0.0000 C   0  0  0  0  0  0  0  0  0  0  0  0
    8.3154   -9.7311    0.0000 O   0  0  0  0  0  0  0  0  0  0  0  0
    8.1358   -8.0625    0.0000 N   0  0  0  0  0  0  0  0  0  0  0  0
    1.2454    2.7149    0.0000 C   0  0  0  0  0  0  0  0  0  0  0  0
    0.0946    3.1047    0.0000 O   0  0  0  0  0  0  0  0  0  0  0  0
    2.0435    3.9849    0.0000 N   0  0  0  0  0  0  0  0  0  0  0  0
    3.1041    5.0456    0.0000 C   0  0  0  0  0  0  0  0  0  0  0  0
    4.3742    5.8437    0.0000 C   0  0  0  0  0  0  0  0  0  0  0  0
    3.7234    7.1951    0.0000 C   0  0  0  0  0  0  0  0  0  0  0  0
    2.2276    7.3072    0.0000 O   0  0  0  0  0  0  0  0  0  0  0  0
    4.5684    8.4345    0.0000 N   0  0  0  0  0  0  0  0  0  0  0  0
    3.9175    9.7859    0.0000 C   0  0  0  0  0  0  0  0  0  0  0  0
    4.7625   11.0253    0.0000 C   0  0  0  0  0  0  0  0  0  0  0  0
    4.1117   12.3767    0.0000 C   0  0  0  0  0  0  0  0  0  0  0  0
    4.9567   13.6161    0.0000 C   0  0  0  0  0  0  0  0  0  0  0  0
    4.3059   14.9675    0.0000 N   0  0  0  0  0  0  0  0  0  0  0  0
    2.4217    9.8980    0.0000 C   0  0  0  0  0  0  0  0  0  0  0  0
    1.5768    8.6587    0.0000 O   0  0  0  0  0  0  0  0  0  0  0  0
    1.7709   11.2495    0.0000 N   0  0  0  0  0  0  0  0  0  0  0  0
    0.2751   11.3616    0.0000 C   0  0  0  0  0  0  0  0  0  0  0  0
   -0.3757   12.7130    0.0000 C   0  0  0  0  0  0  0  0  0  0  0  0
   -1.8715   12.8251    0.0000 C   0  0  0  0  0  0  0  0  0  0  0  0
   -2.5224   14.1766    0.0000 C   0  0  0  0  0  0  0  0  0  0  0  0
   -4.0182   14.2887    0.0000 N   0  0  0  0  0  0  0  0  0  0  0  0
   -4.6690   15.6401    0.0000 C   0  0  0  0  0  0  0  0  0  0  0  0
   -3.8240   16.8795    0.0000 N   0  0  0  0  0  0  0  0  0  0  0  0
   -6.1648   15.7522    0.0000 N   0  0  0  0  0  0  0  0  0  0  0  0
   -0.5699   10.1222    0.0000 C   0  0  0  0  0  0  0  0  0  0  0  0
    0.0810    8.7708    0.0000 O   0  0  0  0  0  0  0  0  0  0  0  0
   -2.0657   10.2343    0.0000 N   0  0  0  0  0  0  0  0  0  0  0  0
   -2.9107    8.9949    0.0000 C   0  0  0  0  0  0  0  0  0  0  0  0
   -4.4065    9.1070    0.0000 C   0  0  0  0  0  0  0  0  0  0  0  0
   -5.2514    7.8677    0.0000 C   0  0  0  0  0  0  0  0  0  0  0  0
   -6.7473    7.9798    0.0000 C   0  0  0  0  0  0  0  0  0  0  0  0
   -7.5922    6.7404    0.0000 C   0  0  0  0  0  0  0  0  0  0  0  0
   -6.9414    5.3890    0.0000 C   0  0  0  0  0  0  0  0  0  0  0  0
   -5.4456    5.2769    0.0000 C   0  0  0  0  0  0  0  0  0  0  0  0
   -4.6006    6.5162    0.0000 C   0  0  0  0  0  0  0  0  0  0  0  0
   -2.2598    7.6435    0.0000 C   0  0  0  0  0  0  0  0  0  0  0  0
   -0.7640    7.5314    0.0000 O   0  0  0  0  0  0  0  0  0  0  0  0
   -3.1048    6.4041    0.0000 N   0  0  0  0  0  0  0  0  0  0  0  0
   -2.4540    5.0527    0.0000 C   0  0  0  0  0  0  0  0  0  0  0  0
   -3.2990    3.8133    0.0000 C   0  0  0  0  0  0  0  0  0  0  0  0
   -0.9582    4.9406    0.0000 C   0  0  0  0  0  0  0  0  0  0  0  0
   -0.1132    6.1799    0.0000 N   0  0  0  0  0  0  0  0  0  0  0  0
   -0.5684    3.7898    0.0000 O   0  0  0  0  0  0  0  0  0  0  0  0
    5.7900    6.3391    0.0000 N   0  0  0  0  0  0  0  0  0  0  0  0
    7.2806    6.5070    0.0000 C   0  0  0  0  0  0  0  0  0  0  0  0
    7.2806    8.0070    0.0000 O   0  0  0  0  0  0  0  0  0  0  0  0
    8.7712    6.3391    0.0000 C   0  0  0  0  0  0  0  0  0  0  0  0
    9.1050    7.8015    0.0000 C   0  0  0  0  0  0  0  0  0  0  0  0
   10.5383    8.2436    0.0000 C   0  0  0  0  0  0  0  0  0  0  0  0
   10.8721    9.7060    0.0000 C   0  0  0  0  0  0  0  0  0  0  0  0
   12.3055   10.1481    0.0000 N   0  0  0  0  0  0  0  0  0  0  0  0
   12.6392   11.6105    0.0000 C   0  0  0  0  0  0  0  0  0  0  0  0
   11.5397   12.6308    0.0000 N   0  0  0  0  0  0  0  0  0  0  0  0
   14.0726   12.0527    0.0000 N   0  0  0  0  0  0  0  0  0  0  0  0
   10.1870    5.8437    0.0000 N   0  0  0  0  0  0  0  0  0  0  0  0
   11.4571    5.0456    0.0000 C   0  0  0  0  0  0  0  0  0  0  0  0
   12.3923    6.2184    0.0000 O   0  0  0  0  0  0  0  0  0  0  0  0
   12.5177    3.9849    0.0000 C   0  0  0  0  0  0  0  0  0  0  0  0
   13.6905    4.9202    0.0000 C   0  0  0  0  0  0  0  0  0  0  0  0
   15.0868    4.3722    0.0000 C   0  0  0  0  0  0  0  0  0  0  0  0
   16.2596    5.3074    0.0000 C   0  0  0  0  0  0  0  0  0  0  0  0
   17.6559    4.7594    0.0000 N   0  0  0  0  0  0  0  0  0  0  0  0
   18.8286    5.6946    0.0000 C   0  0  0  0  0  0  0  0  0  0  0  0
   18.6050    7.1779    0.0000 N   0  0  0  0  0  0  0  0  0  0  0  0
   20.2249    5.1466    0.0000 N   0  0  0  0  0  0  0  0  0  0  0  0
   13.3158    2.7149    0.0000 N   0  0  0  0  0  0  0  0  0  0  0  0
   13.8112    1.2990    0.0000 C   0  0  0  0  0  0  0  0  0  0  0  0
   15.2736    1.6328    0.0000 O   0  0  0  0  0  0  0  0  0  0  0  0
  1  2  1  0
  3  2  1  1
  3  4  1  0
  4  5  1  0
  5  6  2  0
  5  7  1  0
  7  8  1  1
  8  9  1  0
  9 10  2  0
 10 11  1  0
 11 12  2  0
 12 13  1  0
 13 14  2  0
  7 15  1  0
 15 16  1  0
 16 17  2  0
 16 18  1  0
 18 19  1  0
 19 20  1  0
 20 21  1  0
 21 22  1  0
 22 23  1  0
 23 24  1  0
 24 25  2  0
 24 26  1  0
 26 27  1  0
 27 28  2  0
 28 29  1  0
 29 30  2  0
 30 31  1  0
 30 32  1  0
 32 33  2  0
 32 34  1  0
 34 35  1  0
 35 36  1  1
 36 37  1  0
 37 38  2  0
 38 39  1  0
 39 40  2  0
 40 41  1  0
 41 42  2  0
 42 43  1  0
 43 44  2  0
 44 45  1  0
 45 46  2  0
 35 47  1  0
 47 48  2  0
 47 49  1  0
 49 50  1  0
 50 51  1  6
 51 52  1  0
 50 53  1  0
 53 54  2  0
 53 55  1  0
 55 56  1  0
 56 57  1  6
 57 58  1  0
 58 59  1  0
 58 60  2  0
 56 61  1  0
 61 62  2  0
 61 63  1  0
 63 64  1  0
 64 65  1  1
 65 66  1  0
 66 67  2  0
 67 68  1  0
 68 69  2  0
 69 70  1  0
 70 71  2  0
 71 72  1  0
 72 73  2  0
 73 74  1  0
 74 75  2  0
 64 76  1  0
 76 77  2  0
 76 78  1  0
 78 79  1  0
 79 80  1  6
 80 81  2  0
 81 82  1  0
 82 83  2  0
 83 84  1  0
 84 85  2  0
 79 86  1  0
 86 87  2  0
 86 88  1  0
 28 89  1  0
 89 90  2  0
 89 91  1  0
 91 92  1  0
 92 93  1  0
 93 94  1  1
 94 95  2  0
 94 96  1  0
 96 97  1  0
 97 98  1  6
 98 99  1  0
 99100  1  0
100101  1  0
 97102  1  0
102103  2  0
102104  1  0
104105  1  0
105106  1  1
106107  1  0
107108  1  0
108109  1  0
109110  1  0
110111  2  0
110112  1  0
105113  1  0
113114  2  0
113115  1  0
115116  1  0
116117  1  6
117118  1  0
118119  2  0
119120  1  0
120121  2  0
121122  1  0
122123  2  0
116124  1  0
124125  2  0
124126  1  0
126127  1  0
127128  1  1
127129  1  0
129130  1  0
129131  2  0
 93132  1  0
132133  1  0
133134  2  0
133135  1  0
135136  1  6
136137  1  0
137138  1  0
138139  1  0
139140  1  0
140141  2  0
140142  1  0
135143  1  0
143144  1  0
144145  2  0
144146  1  0
146147  1  1
147148  1  0
148149  1  0
149150  1  0
150151  1  0
151152  2  0
151153  1  0
146154  1  0
154155  1  0
155156  2  0
155  3  1  0
 14  9  1  0
 18 88  1  1
123118  1  0
 31 26  2  0
 46 37  1  0
 75 66  1  0
 85 80  1  0
 45 40  1  0
 74 69  1  0
M  END
>  <molecule_chembl_id>  (173) 
CHEMBL4852857

>  <canonical_smiles>  (173) 
CC[C@H]1NC(=O)[C@@H](Cc2ccccc2)NC(=O)[C@@H]2CCCCNC(=O)c3cc(cc(c3)C(=O)N[C@H](Cc3ccc4ccccc4c3)C(=O)N[C@@H](CO)C(=O)N[C@@H](CC(N)=O)C(=O)N[C@H](Cc3ccc4ccccc4c3)C(=O)N[C@@H](c3ccccc3)C(=O)N2)C(=O)NC[C@@H](C(=O)N[C@@H](CCCN)C(=O)N[C@H](CCCNC(=N)N)C(=O)N[C@@H](Cc2ccccc2)C(=O)N[C@H](C)C(N)=O)NC(=O)[C@H](CCCNC(=N)N)NC(=O)[C@@H](CCCNC(=N)N)NC1=O

>  <pchembl_value_mean>  (173) 
6.21

>  <inchi>  (173) 
InChI=1S/C107H137N29O20/c1-3-72-91(143)124-75(35-20-44-118-105(111)112)93(145)126-77(37-22-46-120-107(115)116)96(148)134-83(102(154)127-74(34-19-42-108)92(144)125-76(36-21-45-119-106(113)114)95(147)130-78(49-60-23-7-4-8-24-60)97(149)122-59(2)87(110)139)57-121-89(141)70-53-69-54-71(55-70)90(142)129-80(51-62-38-40-64-27-13-15-31-67(64)47-62)99(151)135-84(58-137)103(155)133-82(56-85(109)138)100(152)132-81(52-63-39-41-65-28-14-16-32-68(65)48-63)101(153)136-86(66-29-11-6-12-30-66)104(156)128-73(33-17-18-43-117-88(69)140)94(146)131-79(98(150)123-72)50-61-25-9-5-10-26-61/h4-16,23-32,38-41,47-48,53-55,59,72-84,86,137H,3,17-22,33-37,42-46,49-52,56-58,108H2,1-2H3,(H2,109,138)(H2,110,139)(H,117,140)(H,121,141)(H,122,149)(H,123,150)(H,124,143)(H,125,144)(H,126,145)(H,127,154)(H,128,156)(H,129,142)(H,130,147)(H,131,146)(H,132,152)(H,133,155)(H,134,148)(H,135,151)(H,136,153)(H4,111,112,118)(H4,113,114,119)(H4,115,116,120)/t59-,72-,73+,74+,75-,76-,77+,78+,79-,80-,81-,82+,83+,84+,86+/m1/s1

$$$$

     RDKit          2D

161170  0  0  0  0  0  0  0  0999 V2000
   11.3966   -9.2254    0.0000 C   0  0  0  0  0  0  0  0  0  0  0  0
   10.7457  -10.5769    0.0000 C   0  0  0  0  0  0  0  0  0  0  0  0
   11.5907  -11.8163    0.0000 C   0  0  0  0  0  0  0  0  0  0  0  0
    9.2499  -10.6890    0.0000 C   0  0  0  0  0  0  0  0  0  0  0  0
    8.5991  -12.0404    0.0000 N   0  0  0  0  0  0  0  0  0  0  0  0
    7.1033  -12.1525    0.0000 C   0  0  0  0  0  0  0  0  0  0  0  0
    6.2583  -10.9132    0.0000 O   0  0  0  0  0  0  0  0  0  0  0  0
    6.4525  -13.5040    0.0000 C   0  0  0  0  0  0  0  0  0  0  0  0
    7.2975  -14.7434    0.0000 C   0  0  0  0  0  0  0  0  0  0  0  0
    8.7933  -14.6313    0.0000 C   0  0  0  0  0  0  0  0  0  0  0  0
    9.6382  -15.8706    0.0000 C   0  0  0  0  0  0  0  0  0  0  0  0
   11.1341  -15.7585    0.0000 C   0  0  0  0  0  0  0  0  0  0  0  0
   11.7849  -14.4071    0.0000 C   0  0  0  0  0  0  0  0  0  0  0  0
   10.9399  -13.1677    0.0000 C   0  0  0  0  0  0  0  0  0  0  0  0
    9.4441  -13.2798    0.0000 C   0  0  0  0  0  0  0  0  0  0  0  0
    4.9567  -13.6161    0.0000 N   0  0  0  0  0  0  0  0  0  0  0  0
    4.1117  -12.3767    0.0000 C   0  0  0  0  0  0  0  0  0  0  0  0
    4.7625  -11.0253    0.0000 O   0  0  0  0  0  0  0  0  0  0  0  0
    2.6159  -12.4888    0.0000 C   0  0  0  0  0  0  0  0  0  0  0  0
    1.9651  -13.8403    0.0000 C   0  0  0  0  0  0  0  0  0  0  0  0
    2.8100  -15.0796    0.0000 C   0  0  0  0  0  0  0  0  0  0  0  0
    2.1592  -16.4311    0.0000 C   0  0  0  0  0  0  0  0  0  0  0  0
    3.0042  -17.6705    0.0000 N   0  0  0  0  0  0  0  0  0  0  0  0
    2.3534  -19.0219    0.0000 C   0  0  0  0  0  0  0  0  0  0  0  0
    0.8576  -19.1340    0.0000 N   0  0  0  0  0  0  0  0  0  0  0  0
    3.1984  -20.2613    0.0000 N   0  0  0  0  0  0  0  0  0  0  0  0
    1.7709  -11.2495    0.0000 N   0  0  0  0  0  0  0  0  0  0  0  0
    2.4217   -9.8980    0.0000 C   0  0  0  0  0  0  0  0  0  0  0  0
    3.9175   -9.7859    0.0000 O   0  0  0  0  0  0  0  0  0  0  0  0
    1.5768   -8.6587    0.0000 C   0  0  0  0  0  0  0  0  0  0  0  0
    0.0810   -8.7708    0.0000 C   0  0  0  0  0  0  0  0  0  0  0  0
   -0.5699  -10.1222    0.0000 C   0  0  0  0  0  0  0  0  0  0  0  0
   -2.0657  -10.2343    0.0000 C   0  0  0  0  0  0  0  0  0  0  0  0
   -2.7165  -11.5858    0.0000 N   0  0  0  0  0  0  0  0  0  0  0  0
    2.2276   -7.3072    0.0000 N   0  0  0  0  0  0  0  0  0  0  0  0
    3.7234   -7.1951    0.0000 C   0  0  0  0  0  0  0  0  0  0  0  0
    4.5684   -8.4345    0.0000 O   0  0  0  0  0  0  0  0  0  0  0  0
    4.3742   -5.8437    0.0000 C   0  0  0  0  0  0  0  0  0  0  0  0
    3.1041   -5.0456    0.0000 C   0  0  0  0  0  0  0  0  0  0  0  0
    2.0435   -3.9849    0.0000 N   0  0  0  0  0  0  0  0  0  0  0  0
    1.2454   -2.7149    0.0000 C   0  0  0  0  0  0  0  0  0  0  0  0
   -0.1060   -3.3657    0.0000 O   0  0  0  0  0  0  0  0  0  0  0  0
    0.7500   -1.2990    0.0000 C   0  0  0  0  0  0  0  0  0  0  0  0
    1.5000    0.0000    0.0000 C   0  0  0  0  0  0  0  0  0  0  0  0
    0.7500    1.2990    0.0000 C   0  0  0  0  0  0  0  0  0  0  0  0
   -0.7500    1.2990    0.0000 C   0  0  0  0  0  0  0  0  0  0  0  0
   -1.5000    0.0000    0.0000 C   0  0  0  0  0  0  0  0  0  0  0  0
   -0.7500   -1.2990    0.0000 C   0  0  0  0  0  0  0  0  0  0  0  0
   -2.7514    0.8271    0.0000 C   0  0  0  0  0  0  0  0  0  0  0  0
   -3.7181   -0.3198    0.0000 O   0  0  0  0  0  0  0  0  0  0  0  0
   -3.7782    1.9205    0.0000 N   0  0  0  0  0  0  0  0  0  0  0  0
   -4.5253    3.2212    0.0000 C   0  0  0  0  0  0  0  0  0  0  0  0
   -5.9040    2.6302    0.0000 C   0  0  0  0  0  0  0  0  0  0  0  0
   -6.0815    1.1408    0.0000 C   0  0  0  0  0  0  0  0  0  0  0  0
   -4.8803    0.2423    0.0000 C   0  0  0  0  0  0  0  0  0  0  0  0
   -5.0578   -1.2471    0.0000 C   0  0  0  0  0  0  0  0  0  0  0  0
   -6.4365   -1.8381    0.0000 C   0  0  0  0  0  0  0  0  0  0  0  0
   -6.6140   -3.3276    0.0000 C   0  0  0  0  0  0  0  0  0  0  0  0
   -7.9927   -3.9186    0.0000 C   0  0  0  0  0  0  0  0  0  0  0  0
   -9.1939   -3.0201    0.0000 C   0  0  0  0  0  0  0  0  0  0  0  0
   -9.0163   -1.5307    0.0000 C   0  0  0  0  0  0  0  0  0  0  0  0
   -7.6377   -0.9397    0.0000 C   0  0  0  0  0  0  0  0  0  0  0  0
   -7.4602    0.5498    0.0000 C   0  0  0  0  0  0  0  0  0  0  0  0
   -4.9522    4.6592    0.0000 C   0  0  0  0  0  0  0  0  0  0  0  0
   -6.4300    4.4021    0.0000 O   0  0  0  0  0  0  0  0  0  0  0  0
   -5.0361    6.1568    0.0000 N   0  0  0  0  0  0  0  0  0  0  0  0
   -4.7722    7.6335    0.0000 C   0  0  0  0  0  0  0  0  0  0  0  0
   -6.2082    8.0669    0.0000 C   0  0  0  0  0  0  0  0  0  0  0  0
   -6.5509    9.5273    0.0000 O   0  0  0  0  0  0  0  0  0  0  0  0
   -4.1750    9.0094    0.0000 C   0  0  0  0  0  0  0  0  0  0  0  0
   -5.4723    9.7624    0.0000 O   0  0  0  0  0  0  0  0  0  0  0  0
   -3.2765   10.2106    0.0000 N   0  0  0  0  0  0  0  0  0  0  0  0
   -2.1253   11.1722    0.0000 C   0  0  0  0  0  0  0  0  0  0  0  0
   -2.9467   12.4273    0.0000 C   0  0  0  0  0  0  0  0  0  0  0  0
   -4.4444   12.3434    0.0000 C   0  0  0  0  0  0  0  0  0  0  0  0
   -5.2658   13.5985    0.0000 N   0  0  0  0  0  0  0  0  0  0  0  0
   -5.1206   11.0045    0.0000 O   0  0  0  0  0  0  0  0  0  0  0  0
   -0.7833   11.8423    0.0000 C   0  0  0  0  0  0  0  0  0  0  0  0
   -1.2931   13.2530    0.0000 O   0  0  0  0  0  0  0  0  0  0  0  0
    0.6770   12.1849    0.0000 N   0  0  0  0  0  0  0  0  0  0  0  0
    2.1770   12.1815    0.0000 C   0  0  0  0  0  0  0  0  0  0  0  0
    2.3546   13.6710    0.0000 C   0  0  0  0  0  0  0  0  0  0  0  0
    1.1534   14.5694    0.0000 C   0  0  0  0  0  0  0  0  0  0  0  0
   -0.2253   13.9785    0.0000 C   0  0  0  0  0  0  0  0  0  0  0  0
   -1.4264   14.8769    0.0000 C   0  0  0  0  0  0  0  0  0  0  0  0
   -1.2489   16.3664    0.0000 C   0  0  0  0  0  0  0  0  0  0  0  0
   -2.4501   17.2648    0.0000 C   0  0  0  0  0  0  0  0  0  0  0  0
   -2.2725   18.7543    0.0000 C   0  0  0  0  0  0  0  0  0  0  0  0
   -0.8939   19.3453    0.0000 C   0  0  0  0  0  0  0  0  0  0  0  0
    0.3073   18.4468    0.0000 C   0  0  0  0  0  0  0  0  0  0  0  0
    0.1298   16.9574    0.0000 C   0  0  0  0  0  0  0  0  0  0  0  0
    1.3309   16.0589    0.0000 C   0  0  0  0  0  0  0  0  0  0  0  0
    3.6358   11.8323    0.0000 C   0  0  0  0  0  0  0  0  0  0  0  0
    4.1520   13.2407    0.0000 O   0  0  0  0  0  0  0  0  0  0  0  0
    4.9747   11.1561    0.0000 N   0  0  0  0  0  0  0  0  0  0  0  0
    6.1216   10.1893    0.0000 C   0  0  0  0  0  0  0  0  0  0  0  0
    7.2150   11.2162    0.0000 C   0  0  0  0  0  0  0  0  0  0  0  0
    8.6510   10.7827    0.0000 C   0  0  0  0  0  0  0  0  0  0  0  0
    9.7444   11.8096    0.0000 C   0  0  0  0  0  0  0  0  0  0  0  0
    9.4018   13.2699    0.0000 C   0  0  0  0  0  0  0  0  0  0  0  0
    7.9658   13.7034    0.0000 C   0  0  0  0  0  0  0  0  0  0  0  0
    6.8724   12.6765    0.0000 C   0  0  0  0  0  0  0  0  0  0  0  0
    7.0146    8.9841    0.0000 C   0  0  0  0  0  0  0  0  0  0  0  0
    8.3154    9.7311    0.0000 O   0  0  0  0  0  0  0  0  0  0  0  0
    7.6056    7.6054    0.0000 N   0  0  0  0  0  0  0  0  0  0  0  0
    8.7712    6.7221    0.0000 C   0  0  0  0  0  0  0  0  0  0  0  0
    7.2806    6.1901    0.0000 C   0  0  0  0  0  0  0  0  0  0  0  0
    5.9458    6.0397    0.0000 C   0  0  0  0  0  0  0  0  0  0  0  0
    4.6779    5.5960    0.0000 C   0  0  0  0  0  0  0  0  0  0  0  0
    3.5406    4.8814    0.0000 C   0  0  0  0  0  0  0  0  0  0  0  0
    2.5907    3.9316    0.0000 N   0  0  0  0  0  0  0  0  0  0  0  0
    1.5931    2.4904    0.0000 C   0  0  0  0  0  0  0  0  0  0  0  0
   -0.1060    3.7487    0.0000 O   0  0  0  0  0  0  0  0  0  0  0  0
   10.1870    6.2267    0.0000 C   0  0  0  0  0  0  0  0  0  0  0  0
   10.8378    7.5782    0.0000 O   0  0  0  0  0  0  0  0  0  0  0  0
   11.4571    5.4287    0.0000 N   0  0  0  0  0  0  0  0  0  0  0  0
   12.5177    4.3680    0.0000 C   0  0  0  0  0  0  0  0  0  0  0  0
   13.6905    5.3032    0.0000 C   0  0  0  0  0  0  0  0  0  0  0  0
   15.0868    4.7552    0.0000 C   0  0  0  0  0  0  0  0  0  0  0  0
   15.3104    3.2720    0.0000 C   0  0  0  0  0  0  0  0  0  0  0  0
   16.7067    2.7240    0.0000 C   0  0  0  0  0  0  0  0  0  0  0  0
   17.8794    3.6592    0.0000 C   0  0  0  0  0  0  0  0  0  0  0  0
   17.6559    5.1425    0.0000 C   0  0  0  0  0  0  0  0  0  0  0  0
   16.2596    5.6905    0.0000 C   0  0  0  0  0  0  0  0  0  0  0  0
   13.3158    3.0979    0.0000 C   0  0  0  0  0  0  0  0  0  0  0  0
   14.6672    3.7487    0.0000 O   0  0  0  0  0  0  0  0  0  0  0  0
   13.8112    1.6821    0.0000 N   0  0  0  0  0  0  0  0  0  0  0  0
   13.9792    0.1915    0.0000 C   0  0  0  0  0  0  0  0  0  0  0  0
   15.4792    0.1915    0.0000 C   0  0  0  0  0  0  0  0  0  0  0  0
   16.2292   -1.1075    0.0000 C   0  0  0  0  0  0  0  0  0  0  0  0
   17.7292   -1.1075    0.0000 C   0  0  0  0  0  0  0  0  0  0  0  0
   18.4792   -2.4065    0.0000 N   0  0  0  0  0  0  0  0  0  0  0  0
   18.4792    0.1915    0.0000 O   0  0  0  0  0  0  0  0  0  0  0  0
   13.8112   -1.2990    0.0000 C   0  0  0  0  0  0  0  0  0  0  0  0
   15.2736   -1.6328    0.0000 O   0  0  0  0  0  0  0  0  0  0  0  0
   13.3158   -2.7149    0.0000 N   0  0  0  0  0  0  0  0  0  0  0  0
   12.5177   -3.9849    0.0000 C   0  0  0  0  0  0  0  0  0  0  0  0
   13.6905   -4.9202    0.0000 C   0  0  0  0  0  0  0  0  0  0  0  0
   13.4669   -6.4034    0.0000 C   0  0  0  0  0  0  0  0  0  0  0  0
   14.6397   -7.3387    0.0000 C   0  0  0  0  0  0  0  0  0  0  0  0
   14.4161   -8.8219    0.0000 N   0  0  0  0  0  0  0  0  0  0  0  0
   15.5889   -9.7571    0.0000 C   0  0  0  0  0  0  0  0  0  0  0  0
   16.9852   -9.2091    0.0000 N   0  0  0  0  0  0  0  0  0  0  0  0
   15.3653  -11.2404    0.0000 N   0  0  0  0  0  0  0  0  0  0  0  0
   11.4571   -5.0456    0.0000 C   0  0  0  0  0  0  0  0  0  0  0  0
   12.3923   -6.2184    0.0000 O   0  0  0  0  0  0  0  0  0  0  0  0
   10.1870   -5.8437    0.0000 N   0  0  0  0  0  0  0  0  0  0  0  0
    8.7712   -6.3391    0.0000 C   0  0  0  0  0  0  0  0  0  0  0  0
    9.1050   -7.8015    0.0000 C   0  0  0  0  0  0  0  0  0  0  0  0
    8.0054   -8.8217    0.0000 C   0  0  0  0  0  0  0  0  0  0  0  0
    8.3392  -10.2841    0.0000 C   0  0  0  0  0  0  0  0  0  0  0  0
    7.2396  -11.3044    0.0000 N   0  0  0  0  0  0  0  0  0  0  0  0
    7.5734  -12.7668    0.0000 C   0  0  0  0  0  0  0  0  0  0  0  0
    8.3693  -12.8104    0.0000 N   0  0  0  0  0  0  0  0  0  0  0  0
    6.7533  -14.0228    0.0000 N   0  0  0  0  0  0  0  0  0  0  0  0
    7.2806   -6.5070    0.0000 C   0  0  0  0  0  0  0  0  0  0  0  0
    7.2806   -8.0070    0.0000 O   0  0  0  0  0  0  0  0  0  0  0  0
    5.7900   -6.3391    0.0000 N   0  0  0  0  0  0  0  0  0  0  0  0
    8.4050   -9.4496    0.0000 C   0  0  0  0  0  0  0  0  0  0  0  0
    9.3635   -8.2958    0.0000 N   0  0  0  0  0  0  0  0  0  0  0  0
    6.9092   -9.5617    0.0000 O   0  0  0  0  0  0  0  0  0  0  0  0
  1  2  1  0
  2  3  1  0
  2  4  1  0
  4  5  1  6
  5  6  1  0
  6  7  2  0
  6  8  1  0
  8  9  1  6
  9 10  1  0
 10 11  2  0
 11 12  1  0
 12 13  2  0
 13 14  1  0
 14 15  2  0
  8 16  1  0
 16 17  1  0
 17 18  2  0
 17 19  1  0
 19 20  1  1
 20 21  1  0
 21 22  1  0
 22 23  1  0
 23 24  1  0
 24 25  2  0
 24 26  1  0
 19 27  1  0
 27 28  1  0
 28 29  2  0
 28 30  1  0
 30 31  1  6
 31 32  1  0
 32 33  1  0
 33 34  1  0
 30 35  1  0
 35 36  1  0
 36 37  2  0
 38 36  1  6
 38 39  1  0
 39 40  1  0
 40 41  1  0
 41 42  2  0
 41 43  1  0
 43 44  2  0
 44 45  1  0
 45 46  2  0
 46 47  1  0
 47 48  2  0
 47 49  1  0
 49 50  2  0
 49 51  1  0
 51 52  1  0
 52 53  1  6
 53 54  1  0
 54 55  2  0
 55 56  1  0
 56 57  2  0
 57 58  1  0
 58 59  2  0
 59 60  1  0
 60 61  2  0
 61 62  1  0
 62 63  2  0
 52 64  1  0
 64 65  2  0
 64 66  1  0
 66 67  1  0
 67 68  1  1
 68 69  1  0
 67 70  1  0
 70 71  2  0
 70 72  1  0
 72 73  1  0
 73 74  1  1
 74 75  1  0
 75 76  1  0
 75 77  2  0
 73 78  1  0
 78 79  2  0
 78 80  1  0
 80 81  1  0
 81 82  1  6
 82 83  1  0
 83 84  2  0
 84 85  1  0
 85 86  2  0
 86 87  1  0
 87 88  2  0
 88 89  1  0
 89 90  2  0
 90 91  1  0
 91 92  2  0
 81 93  1  0
 93 94  2  0
 93 95  1  0
 95 96  1  0
 96 97  1  1
 97 98  2  0
 98 99  1  0
 99100  2  0
100101  1  0
101102  2  0
 96103  1  0
103104  2  0
103105  1  0
106105  1  6
106107  1  0
107108  1  0
108109  1  0
109110  1  0
110111  1  0
111112  1  0
112113  2  0
106114  1  0
114115  2  0
114116  1  0
116117  1  0
117118  1  6
118119  1  0
119120  2  0
120121  1  0
121122  2  0
122123  1  0
123124  2  0
117125  1  0
125126  2  0
125127  1  0
127128  1  0
128129  1  6
129130  1  0
130131  1  0
131132  1  0
131133  2  0
128134  1  0
134135  2  0
134136  1  0
136137  1  0
137138  1  6
138139  1  0
139140  1  0
140141  1  0
141142  1  0
142143  2  0
142144  1  0
137145  1  0
145146  2  0
145147  1  0
147148  1  0
148149  1  1
149150  1  0
150151  1  0
151152  1  0
152153  1  0
153154  2  0
153155  1  0
148156  1  0
156157  2  0
156158  1  0
  4159  1  0
159160  1  0
159161  2  0
 15 10  1  0
158 38  1  0
 48 43  1  0
 63 54  1  0
 92 83  1  0
102 97  1  0
124119  1  0
112 45  1  0
 62 57  1  0
 91 86  1  0
M  END
>  <molecule_chembl_id>  (174) 
CHEMBL4872691

>  <canonical_smiles>  (174) 
CC(C)[C@H](NC(=O)[C@H](Cc1ccccc1)NC(=O)[C@@H](CCCNC(=N)N)NC(=O)[C@H](CCCN)NC(=O)[C@@H]1CNC(=O)c2cc3cc(c2)C(=O)N[C@H](Cc2ccc4ccccc4c2)C(=O)N[C@@H](CO)C(=O)N[C@@H](CC(N)=O)C(=O)N[C@H](Cc2ccc4ccccc4c2)C(=O)N[C@@H](c2ccccc2)C(=O)N[C@@H](CCCCNC3=O)C(=O)N[C@H](Cc2ccccc2)C(=O)N[C@H](CCC(N)=O)C(=O)N[C@H](CCCNC(=N)N)C(=O)N[C@@H](CCCNC(=N)N)C(=O)N1)C(N)=O

>  <pchembl_value_mean>  (174) 
6.21

>  <inchi>  (174) 
InChI=1S/C110H142N30O21/c1-60(2)88(90(114)144)139-103(157)80(51-62-24-8-4-9-25-62)134-97(151)76(35-20-46-123-109(117)118)126-94(148)74(33-18-43-111)129-105(159)84-58-125-92(146)71-54-70-55-72(56-71)93(147)132-81(52-63-37-39-65-26-12-14-30-68(65)48-63)101(155)138-85(59-141)106(160)136-83(57-87(113)143)102(156)135-82(53-64-38-40-66-27-13-15-31-69(66)49-64)104(158)140-89(67-28-10-5-11-29-67)107(161)131-73(32-16-17-44-121-91(70)145)96(150)133-79(50-61-22-6-3-7-23-61)100(154)130-78(41-42-86(112)142)99(153)128-75(34-19-45-122-108(115)116)95(149)127-77(98(152)137-84)36-21-47-124-110(119)120/h3-15,22-31,37-40,48-49,54-56,60,73-85,88-89,141H,16-21,32-36,41-47,50-53,57-59,111H2,1-2H3,(H2,112,142)(H2,113,143)(H2,114,144)(H,121,145)(H,125,146)(H,126,148)(H,127,149)(H,128,153)(H,129,159)(H,130,154)(H,131,161)(H,132,147)(H,133,150)(H,134,151)(H,135,156)(H,136,160)(H,137,152)(H,138,155)(H,139,157)(H,140,158)(H4,115,116,122)(H4,117,118,123)(H4,119,120,124)/t73-,74-,75+,76+,77-,78+,79+,80-,81+,82+,83-,84-,85-,88-,89-/m0/s1

$$$$

     RDKit          2D

139144  0  0  0  0  0  0  0  0999 V2000
    8.5865   12.9940    0.0000 C   0  0  0  0  0  0  0  0  0  0  0  0
    7.2350   12.3432    0.0000 C   0  0  0  0  0  0  0  0  0  0  0  0
    5.9956   13.1882    0.0000 C   0  0  0  0  0  0  0  0  0  0  0  0
    4.6442   12.5373    0.0000 C   0  0  0  0  0  0  0  0  0  0  0  0
    5.1713   11.1330    0.0000 N   0  0  0  0  0  0  0  0  0  0  0  0
    5.4391    9.6571    0.0000 C   0  0  0  0  0  0  0  0  0  0  0  0
    6.9331    9.7915    0.0000 O   0  0  0  0  0  0  0  0  0  0  0  0
    5.4391    8.1571    0.0000 C   0  0  0  0  0  0  0  0  0  0  0  0
    6.9331    8.0226    0.0000 C   0  0  0  0  0  0  0  0  0  0  0  0
    7.5636    6.6616    0.0000 C   0  0  0  0  0  0  0  0  0  0  0  0
    6.7002    5.4350    0.0000 C   0  0  0  0  0  0  0  0  0  0  0  0
    7.3307    4.0740    0.0000 C   0  0  0  0  0  0  0  0  0  0  0  0
    8.8247    3.9395    0.0000 C   0  0  0  0  0  0  0  0  0  0  0  0
    9.4552    2.5785    0.0000 C   0  0  0  0  0  0  0  0  0  0  0  0
    8.5918    1.3519    0.0000 C   0  0  0  0  0  0  0  0  0  0  0  0
    9.2223   -0.0091    0.0000 C   0  0  0  0  0  0  0  0  0  0  0  0
   10.7163   -0.1436    0.0000 C   0  0  0  0  0  0  0  0  0  0  0  0
   11.5797    1.0830    0.0000 C   0  0  0  0  0  0  0  0  0  0  0  0
   10.9492    2.4440    0.0000 C   0  0  0  0  0  0  0  0  0  0  0  0
    9.6881    5.1661    0.0000 C   0  0  0  0  0  0  0  0  0  0  0  0
    9.0576    6.5271    0.0000 C   0  0  0  0  0  0  0  0  0  0  0  0
    5.1713    6.6812    0.0000 N   0  0  0  0  0  0  0  0  0  0  0  0
    4.6442    5.2768    0.0000 C   0  0  0  0  0  0  0  0  0  0  0  0
    5.9956    4.6260    0.0000 O   0  0  0  0  0  0  0  0  0  0  0  0
    3.8748    3.9892    0.0000 C   0  0  0  0  0  0  0  0  0  0  0  0
    5.0884    3.1075    0.0000 C   0  0  0  0  0  0  0  0  0  0  0  0
    4.9316    1.6157    0.0000 C   0  0  0  0  0  0  0  0  0  0  0  0
    6.1451    0.7340    0.0000 C   0  0  0  0  0  0  0  0  0  0  0  0
    3.5613    1.0056    0.0000 C   0  0  0  0  0  0  0  0  0  0  0  0
    2.8879    2.8596    0.0000 N   0  0  0  0  0  0  0  0  0  0  0  0
    1.7152    1.9243    0.0000 C   0  0  0  0  0  0  0  0  0  0  0  0
    2.5415    0.6725    0.0000 O   0  0  0  0  0  0  0  0  0  0  0  0
    0.3943    1.2135    0.0000 C   0  0  0  0  0  0  0  0  0  0  0  0
    1.2760    0.0000    0.0000 C   0  0  0  0  0  0  0  0  0  0  0  0
    0.3943   -1.2135    0.0000 C   0  0  0  0  0  0  0  0  0  0  0  0
   -1.0323   -0.7500    0.0000 C   0  0  0  0  0  0  0  0  0  0  0  0
   -1.0323    0.7500    0.0000 N   0  0  0  0  0  0  0  0  0  0  0  0
   -2.5187    0.5487    0.0000 C   0  0  0  0  0  0  0  0  0  0  0  0
   -2.4514   -0.9498    0.0000 O   0  0  0  0  0  0  0  0  0  0  0  0
   -4.0172    0.6159    0.0000 C   0  0  0  0  0  0  0  0  0  0  0  0
   -4.2186   -0.8705    0.0000 N   0  0  0  0  0  0  0  0  0  0  0  0
   -5.6065   -1.4393    0.0000 C   0  0  0  0  0  0  0  0  0  0  0  0
   -6.7931   -0.5217    0.0000 O   0  0  0  0  0  0  0  0  0  0  0  0
   -5.8079   -2.9257    0.0000 C   0  0  0  0  0  0  0  0  0  0  0  0
   -7.1958   -3.4946    0.0000 C   0  0  0  0  0  0  0  0  0  0  0  0
   -7.3972   -4.9810    0.0000 C   0  0  0  0  0  0  0  0  0  0  0  0
   -8.7851   -5.5498    0.0000 C   0  0  0  0  0  0  0  0  0  0  0  0
   -8.9865   -7.0363    0.0000 N   0  0  0  0  0  0  0  0  0  0  0  0
  -10.3744   -7.6051    0.0000 C   0  0  0  0  0  0  0  0  0  0  0  0
  -11.5610   -6.6875    0.0000 N   0  0  0  0  0  0  0  0  0  0  0  0
  -10.5758   -9.0915    0.0000 N   0  0  0  0  0  0  0  0  0  0  0  0
   -4.6213   -3.8433    0.0000 N   0  0  0  0  0  0  0  0  0  0  0  0
   -4.8226   -5.3298    0.0000 C   0  0  0  0  0  0  0  0  0  0  0  0
   -6.2106   -5.8986    0.0000 O   0  0  0  0  0  0  0  0  0  0  0  0
   -3.6360   -6.2473    0.0000 C   0  0  0  0  0  0  0  0  0  0  0  0
   -3.8373   -7.7338    0.0000 C   0  0  0  0  0  0  0  0  0  0  0  0
   -2.6507   -8.6513    0.0000 C   0  0  0  0  0  0  0  0  0  0  0  0
   -2.8521  -10.1378    0.0000 C   0  0  0  0  0  0  0  0  0  0  0  0
   -1.6655  -11.0554    0.0000 N   0  0  0  0  0  0  0  0  0  0  0  0
   -1.8668  -12.5418    0.0000 C   0  0  0  0  0  0  0  0  0  0  0  0
   -3.2548  -13.1106    0.0000 N   0  0  0  0  0  0  0  0  0  0  0  0
   -0.6802  -13.4594    0.0000 N   0  0  0  0  0  0  0  0  0  0  0  0
   -2.2480   -5.6785    0.0000 N   0  0  0  0  0  0  0  0  0  0  0  0
   -1.0614   -6.5961    0.0000 C   0  0  0  0  0  0  0  0  0  0  0  0
    0.3265   -6.0272    0.0000 C   0  0  0  0  0  0  0  0  0  0  0  0
   -1.2628   -8.0825    0.0000 O   0  0  0  0  0  0  0  0  0  0  0  0
   -5.4796    0.9497    0.0000 C   0  0  0  0  0  0  0  0  0  0  0  0
   -6.8589    1.5393    0.0000 S   0  0  0  0  0  0  0  0  0  0  0  0
   -8.1107    2.3656    0.0000 S   0  0  0  0  0  0  0  0  0  0  0  0
   -9.1949    3.4022    0.0000 C   0  0  0  0  0  0  0  0  0  0  0  0
  -10.0766    4.6157    0.0000 C   0  0  0  0  0  0  0  0  0  0  0  0
  -11.3643    3.8464    0.0000 C   0  0  0  0  0  0  0  0  0  0  0  0
  -11.3418    2.3466    0.0000 O   0  0  0  0  0  0  0  0  0  0  0  0
  -12.6744    4.5769    0.0000 N   0  0  0  0  0  0  0  0  0  0  0  0
  -13.9621    3.8075    0.0000 C   0  0  0  0  0  0  0  0  0  0  0  0
  -15.2722    4.5380    0.0000 C   0  0  0  0  0  0  0  0  0  0  0  0
  -16.5599    3.7687    0.0000 C   0  0  0  0  0  0  0  0  0  0  0  0
  -17.8700    4.4991    0.0000 C   0  0  0  0  0  0  0  0  0  0  0  0
  -19.1576    3.7298    0.0000 N   0  0  0  0  0  0  0  0  0  0  0  0
  -20.4678    4.4603    0.0000 C   0  0  0  0  0  0  0  0  0  0  0  0
  -20.4902    5.9601    0.0000 N   0  0  0  0  0  0  0  0  0  0  0  0
  -21.7554    3.6909    0.0000 N   0  0  0  0  0  0  0  0  0  0  0  0
  -13.9396    2.3077    0.0000 C   0  0  0  0  0  0  0  0  0  0  0  0
  -12.6295    1.5772    0.0000 O   0  0  0  0  0  0  0  0  0  0  0  0
  -15.2273    1.5383    0.0000 N   0  0  0  0  0  0  0  0  0  0  0  0
  -15.2049    0.0385    0.0000 C   0  0  0  0  0  0  0  0  0  0  0  0
  -16.4925   -0.7308    0.0000 C   0  0  0  0  0  0  0  0  0  0  0  0
  -16.4701   -2.2307    0.0000 C   0  0  0  0  0  0  0  0  0  0  0  0
  -17.7578   -3.0000    0.0000 C   0  0  0  0  0  0  0  0  0  0  0  0
  -17.7353   -4.4999    0.0000 N   0  0  0  0  0  0  0  0  0  0  0  0
  -19.0230   -5.2692    0.0000 C   0  0  0  0  0  0  0  0  0  0  0  0
  -20.3331   -4.5387    0.0000 N   0  0  0  0  0  0  0  0  0  0  0  0
  -19.0006   -6.7690    0.0000 N   0  0  0  0  0  0  0  0  0  0  0  0
  -13.8948   -0.6920    0.0000 C   0  0  0  0  0  0  0  0  0  0  0  0
  -13.8723   -2.1918    0.0000 N   0  0  0  0  0  0  0  0  0  0  0  0
  -12.6071    0.0774    0.0000 O   0  0  0  0  0  0  0  0  0  0  0  0
  -10.7274    5.9672    0.0000 N   0  0  0  0  0  0  0  0  0  0  0  0
  -11.1265    7.4131    0.0000 C   0  0  0  0  0  0  0  0  0  0  0  0
  -12.6024    7.1453    0.0000 O   0  0  0  0  0  0  0  0  0  0  0  0
  -11.2610    8.9071    0.0000 C   0  0  0  0  0  0  0  0  0  0  0  0
  -12.7610    8.9071    0.0000 C   0  0  0  0  0  0  0  0  0  0  0  0
  -13.5110   10.2061    0.0000 C   0  0  0  0  0  0  0  0  0  0  0  0
  -13.5110    7.6081    0.0000 C   0  0  0  0  0  0  0  0  0  0  0  0
  -11.1265   10.4011    0.0000 N   0  0  0  0  0  0  0  0  0  0  0  0
  -10.7274   11.8470    0.0000 C   0  0  0  0  0  0  0  0  0  0  0  0
  -12.1318   12.3741    0.0000 O   0  0  0  0  0  0  0  0  0  0  0  0
  -10.0766   13.1984    0.0000 C   0  0  0  0  0  0  0  0  0  0  0  0
  -11.5032   13.6620    0.0000 C   0  0  0  0  0  0  0  0  0  0  0  0
  -11.5032   15.1620    0.0000 C   0  0  0  0  0  0  0  0  0  0  0  0
  -10.0766   15.6255    0.0000 C   0  0  0  0  0  0  0  0  0  0  0  0
   -9.1949   14.4120    0.0000 N   0  0  0  0  0  0  0  0  0  0  0  0
   -8.1107   15.4486    0.0000 C   0  0  0  0  0  0  0  0  0  0  0  0
   -9.0460   16.6213    0.0000 O   0  0  0  0  0  0  0  0  0  0  0  0
   -6.8589   16.2749    0.0000 C   0  0  0  0  0  0  0  0  0  0  0  0
   -7.5697   17.5958    0.0000 C   0  0  0  0  0  0  0  0  0  0  0  0
   -6.7812   18.8718    0.0000 C   0  0  0  0  0  0  0  0  0  0  0  0
   -5.2818   18.8270    0.0000 O   0  0  0  0  0  0  0  0  0  0  0  0
   -7.4920   20.1927    0.0000 O   0  0  0  0  0  0  0  0  0  0  0  0
   -5.4796   16.8645    0.0000 N   0  0  0  0  0  0  0  0  0  0  0  0
   -4.0172   17.1982    0.0000 C   0  0  0  0  0  0  0  0  0  0  0  0
   -4.2186   18.6847    0.0000 O   0  0  0  0  0  0  0  0  0  0  0  0
   -2.5187   17.2655    0.0000 C   0  0  0  0  0  0  0  0  0  0  0  0
   -2.4514   18.7640    0.0000 C   0  0  0  0  0  0  0  0  0  0  0  0
   -1.1200   19.4550    0.0000 C   0  0  0  0  0  0  0  0  0  0  0  0
    0.1440   18.6475    0.0000 C   0  0  0  0  0  0  0  0  0  0  0  0
    1.4754   19.3384    0.0000 C   0  0  0  0  0  0  0  0  0  0  0  0
    1.5427   20.8369    0.0000 C   0  0  0  0  0  0  0  0  0  0  0  0
    2.8741   21.5279    0.0000 O   0  0  0  0  0  0  0  0  0  0  0  0
    0.2786   21.6444    0.0000 C   0  0  0  0  0  0  0  0  0  0  0  0
   -1.0527   20.9535    0.0000 C   0  0  0  0  0  0  0  0  0  0  0  0
   -1.0323   17.0642    0.0000 N   0  0  0  0  0  0  0  0  0  0  0  0
    0.3943   16.6007    0.0000 C   0  0  0  0  0  0  0  0  0  0  0  0
    0.9838   17.9799    0.0000 O   0  0  0  0  0  0  0  0  0  0  0  0
    1.7152   15.8899    0.0000 C   0  0  0  0  0  0  0  0  0  0  0  0
    2.5415   17.1417    0.0000 C   0  0  0  0  0  0  0  0  0  0  0  0
    4.0389   17.0520    0.0000 O   0  0  0  0  0  0  0  0  0  0  0  0
    2.8879   14.9546    0.0000 N   0  0  0  0  0  0  0  0  0  0  0  0
    3.8748   13.8250    0.0000 C   0  0  0  0  0  0  0  0  0  0  0  0
    5.0884   14.7067    0.0000 O   0  0  0  0  0  0  0  0  0  0  0  0
  1  2  1  0
  2  3  1  0
  4  3  1  6
  4  5  1  0
  5  6  1  0
  6  7  2  0
  6  8  1  0
  8  9  1  6
  9 10  1  0
 10 11  2  0
 11 12  1  0
 12 13  2  0
 13 14  1  0
 14 15  2  0
 15 16  1  0
 16 17  2  0
 17 18  1  0
 18 19  2  0
 13 20  1  0
 20 21  2  0
  8 22  1  0
 22 23  1  0
 23 24  2  0
 23 25  1  0
 25 26  1  6
 26 27  1  0
 27 28  1  0
 27 29  1  0
 25 30  1  0
 30 31  1  0
 31 32  2  0
 31 33  1  0
 33 34  1  6
 34 35  1  0
 35 36  1  0
 36 37  1  0
 37 38  1  0
 38 39  2  0
 38 40  1  0
 40 41  1  1
 41 42  1  0
 42 43  2  0
 42 44  1  0
 44 45  1  1
 45 46  1  0
 46 47  1  0
 47 48  1  0
 48 49  1  0
 49 50  2  0
 49 51  1  0
 44 52  1  0
 52 53  1  0
 53 54  2  0
 53 55  1  0
 55 56  1  1
 56 57  1  0
 57 58  1  0
 58 59  1  0
 59 60  1  0
 60 61  2  0
 60 62  1  0
 55 63  1  0
 63 64  1  0
 64 65  1  0
 64 66  2  0
 40 67  1  0
 67 68  1  0
 68 69  1  0
 69 70  1  0
 70 71  1  0
 71 72  1  1
 72 73  2  0
 72 74  1  0
 74 75  1  0
 75 76  1  6
 76 77  1  0
 77 78  1  0
 78 79  1  0
 79 80  1  0
 80 81  2  0
 80 82  1  0
 75 83  1  0
 83 84  2  0
 83 85  1  0
 85 86  1  0
 86 87  1  6
 87 88  1  0
 88 89  1  0
 89 90  1  0
 90 91  1  0
 91 92  2  0
 91 93  1  0
 86 94  1  0
 94 95  1  0
 94 96  2  0
 71 97  1  0
 97 98  1  0
 98 99  2  0
 98100  1  0
100101  1  6
101102  1  0
101103  1  0
100104  1  0
104105  1  0
105106  2  0
105107  1  0
107108  1  6
108109  1  0
109110  1  0
110111  1  0
111112  1  0
112113  2  0
112114  1  0
114115  1  6
115116  1  0
116117  2  0
116118  1  0
114119  1  0
119120  1  0
120121  2  0
120122  1  0
122123  1  6
123124  1  0
124125  2  0
125126  1  0
126127  2  0
127128  1  0
127129  1  0
129130  2  0
122131  1  0
131132  1  0
132133  2  0
132134  1  0
134135  1  6
135136  1  0
134137  1  0
137138  1  0
138139  2  0
138  4  1  0
 21 10  1  0
 37 33  1  0
111107  1  0
130124  1  0
 19 14  1  0
M  END
>  <molecule_chembl_id>  (175) 
CHEMBL5193586

>  <canonical_smiles>  (175) 
CCC[C@@H]1NC(=O)[C@H](Cc2ccc(-c3ccccc3)cc2)NC(=O)[C@H](CC(C)C)NC(=O)[C@@H]2CCCN2C(=O)[C@@H](NC(=O)[C@H](CCCNC(=N)N)NC(=O)[C@H](CCCNC(=N)N)NC(C)=O)CSSC[C@@H](C(=O)N[C@@H](CCCNC(=N)N)C(=O)N[C@@H](CCCNC(=N)N)C(N)=O)NC(=O)[C@H](C(C)C)NC(=O)[C@@H]2CCCN2C(=O)[C@H](CC(=O)O)NC(=O)[C@H](Cc2ccc(O)cc2)NC(=O)[C@H](CO)NC1=O

>  <pchembl_value_mean>  (175) 
6.22

>  <inchi>  (175) 
InChI=1S/C89H136N28O20S2/c1-7-17-56-72(124)112-64(44-118)79(131)109-62(42-51-28-32-54(120)33-29-51)78(130)111-63(43-69(121)122)84(136)116-38-16-25-68(116)82(134)115-70(48(4)5)83(135)113-65(80(132)107-58(22-13-36-101-88(95)96)74(126)104-55(71(90)123)20-11-34-99-86(91)92)45-138-139-46-66(114-75(127)59(23-14-37-102-89(97)98)106-73(125)57(103-49(6)119)21-12-35-100-87(93)94)85(137)117-39-15-24-67(117)81(133)110-60(40-47(2)3)76(128)108-61(77(129)105-56)41-50-26-30-53(31-27-50)52-18-9-8-10-19-52/h8-10,18-19,26-33,47-48,55-68,70,118,120H,7,11-17,20-25,34-46H2,1-6H3,(H2,90,123)(H,103,119)(H,104,126)(H,105,129)(H,106,125)(H,107,132)(H,108,128)(H,109,131)(H,110,133)(H,111,130)(H,112,124)(H,113,135)(H,114,127)(H,115,134)(H,121,122)(H4,91,92,99)(H4,93,94,100)(H4,95,96,101)(H4,97,98,102)/t55-,56-,57-,58-,59-,60-,61-,62-,63-,64-,65-,66-,67-,68-,70-/m0/s1

$$$$

     RDKit          2D

161170  0  0  0  0  0  0  0  0999 V2000
   11.3966   -9.2254    0.0000 C   0  0  0  0  0  0  0  0  0  0  0  0
   10.7457  -10.5769    0.0000 C   0  0  0  0  0  0  0  0  0  0  0  0
   11.5907  -11.8163    0.0000 O   0  0  0  0  0  0  0  0  0  0  0  0
    9.2499  -10.6890    0.0000 C   0  0  0  0  0  0  0  0  0  0  0  0
    8.5991  -12.0404    0.0000 N   0  0  0  0  0  0  0  0  0  0  0  0
    7.1033  -12.1525    0.0000 C   0  0  0  0  0  0  0  0  0  0  0  0
    6.2583  -10.9132    0.0000 O   0  0  0  0  0  0  0  0  0  0  0  0
    6.4525  -13.5040    0.0000 C   0  0  0  0  0  0  0  0  0  0  0  0
    7.2975  -14.7434    0.0000 C   0  0  0  0  0  0  0  0  0  0  0  0
    8.7933  -14.6313    0.0000 C   0  0  0  0  0  0  0  0  0  0  0  0
    9.6382  -15.8706    0.0000 C   0  0  0  0  0  0  0  0  0  0  0  0
   11.1341  -15.7585    0.0000 C   0  0  0  0  0  0  0  0  0  0  0  0
   11.7849  -14.4071    0.0000 C   0  0  0  0  0  0  0  0  0  0  0  0
   10.9399  -13.1677    0.0000 C   0  0  0  0  0  0  0  0  0  0  0  0
    9.4441  -13.2798    0.0000 C   0  0  0  0  0  0  0  0  0  0  0  0
    4.9567  -13.6161    0.0000 N   0  0  0  0  0  0  0  0  0  0  0  0
    4.1117  -12.3767    0.0000 C   0  0  0  0  0  0  0  0  0  0  0  0
    4.7625  -11.0253    0.0000 O   0  0  0  0  0  0  0  0  0  0  0  0
    2.6159  -12.4888    0.0000 C   0  0  0  0  0  0  0  0  0  0  0  0
    1.9651  -13.8403    0.0000 C   0  0  0  0  0  0  0  0  0  0  0  0
    2.8100  -15.0796    0.0000 C   0  0  0  0  0  0  0  0  0  0  0  0
    2.1592  -16.4311    0.0000 C   0  0  0  0  0  0  0  0  0  0  0  0
    3.0042  -17.6705    0.0000 N   0  0  0  0  0  0  0  0  0  0  0  0
    2.3534  -19.0219    0.0000 C   0  0  0  0  0  0  0  0  0  0  0  0
    0.8576  -19.1340    0.0000 N   0  0  0  0  0  0  0  0  0  0  0  0
    3.1984  -20.2613    0.0000 N   0  0  0  0  0  0  0  0  0  0  0  0
    1.7709  -11.2495    0.0000 N   0  0  0  0  0  0  0  0  0  0  0  0
    2.4217   -9.8980    0.0000 C   0  0  0  0  0  0  0  0  0  0  0  0
    3.9175   -9.7859    0.0000 O   0  0  0  0  0  0  0  0  0  0  0  0
    1.5768   -8.6587    0.0000 C   0  0  0  0  0  0  0  0  0  0  0  0
    0.0810   -8.7708    0.0000 C   0  0  0  0  0  0  0  0  0  0  0  0
   -0.5699  -10.1222    0.0000 C   0  0  0  0  0  0  0  0  0  0  0  0
   -2.0657  -10.2343    0.0000 C   0  0  0  0  0  0  0  0  0  0  0  0
   -2.7165  -11.5858    0.0000 N   0  0  0  0  0  0  0  0  0  0  0  0
    2.2276   -7.3072    0.0000 N   0  0  0  0  0  0  0  0  0  0  0  0
    3.7234   -7.1951    0.0000 C   0  0  0  0  0  0  0  0  0  0  0  0
    4.5684   -8.4345    0.0000 O   0  0  0  0  0  0  0  0  0  0  0  0
    4.3742   -5.8437    0.0000 C   0  0  0  0  0  0  0  0  0  0  0  0
    3.1041   -5.0456    0.0000 C   0  0  0  0  0  0  0  0  0  0  0  0
    2.0435   -3.9849    0.0000 N   0  0  0  0  0  0  0  0  0  0  0  0
    1.2454   -2.7149    0.0000 C   0  0  0  0  0  0  0  0  0  0  0  0
   -0.1060   -3.3657    0.0000 O   0  0  0  0  0  0  0  0  0  0  0  0
    0.7500   -1.2990    0.0000 C   0  0  0  0  0  0  0  0  0  0  0  0
    1.5000    0.0000    0.0000 C   0  0  0  0  0  0  0  0  0  0  0  0
    0.7500    1.2990    0.0000 C   0  0  0  0  0  0  0  0  0  0  0  0
   -0.7500    1.2990    0.0000 C   0  0  0  0  0  0  0  0  0  0  0  0
   -1.5000    0.0000    0.0000 C   0  0  0  0  0  0  0  0  0  0  0  0
   -0.7500   -1.2990    0.0000 C   0  0  0  0  0  0  0  0  0  0  0  0
   -2.7514    0.8271    0.0000 C   0  0  0  0  0  0  0  0  0  0  0  0
   -3.7181   -0.3198    0.0000 O   0  0  0  0  0  0  0  0  0  0  0  0
   -3.7782    1.9205    0.0000 N   0  0  0  0  0  0  0  0  0  0  0  0
   -4.5253    3.2212    0.0000 C   0  0  0  0  0  0  0  0  0  0  0  0
   -5.9040    2.6302    0.0000 C   0  0  0  0  0  0  0  0  0  0  0  0
   -6.0815    1.1408    0.0000 C   0  0  0  0  0  0  0  0  0  0  0  0
   -4.8803    0.2423    0.0000 C   0  0  0  0  0  0  0  0  0  0  0  0
   -5.0578   -1.2471    0.0000 C   0  0  0  0  0  0  0  0  0  0  0  0
   -6.4365   -1.8381    0.0000 C   0  0  0  0  0  0  0  0  0  0  0  0
   -6.6140   -3.3276    0.0000 C   0  0  0  0  0  0  0  0  0  0  0  0
   -7.9927   -3.9186    0.0000 C   0  0  0  0  0  0  0  0  0  0  0  0
   -9.1939   -3.0201    0.0000 C   0  0  0  0  0  0  0  0  0  0  0  0
   -9.0163   -1.5307    0.0000 C   0  0  0  0  0  0  0  0  0  0  0  0
   -7.6377   -0.9397    0.0000 C   0  0  0  0  0  0  0  0  0  0  0  0
   -7.4602    0.5498    0.0000 C   0  0  0  0  0  0  0  0  0  0  0  0
   -4.9522    4.6592    0.0000 C   0  0  0  0  0  0  0  0  0  0  0  0
   -6.4300    4.4021    0.0000 O   0  0  0  0  0  0  0  0  0  0  0  0
   -5.0361    6.1568    0.0000 N   0  0  0  0  0  0  0  0  0  0  0  0
   -4.7722    7.6335    0.0000 C   0  0  0  0  0  0  0  0  0  0  0  0
   -6.2082    8.0669    0.0000 C   0  0  0  0  0  0  0  0  0  0  0  0
   -6.5509    9.5273    0.0000 O   0  0  0  0  0  0  0  0  0  0  0  0
   -4.1750    9.0094    0.0000 C   0  0  0  0  0  0  0  0  0  0  0  0
   -5.4723    9.7624    0.0000 O   0  0  0  0  0  0  0  0  0  0  0  0
   -3.2765   10.2106    0.0000 N   0  0  0  0  0  0  0  0  0  0  0  0
   -2.1253   11.1722    0.0000 C   0  0  0  0  0  0  0  0  0  0  0  0
   -2.9467   12.4273    0.0000 C   0  0  0  0  0  0  0  0  0  0  0  0
   -4.4444   12.3434    0.0000 C   0  0  0  0  0  0  0  0  0  0  0  0
   -5.2658   13.5985    0.0000 N   0  0  0  0  0  0  0  0  0  0  0  0
   -5.1206   11.0045    0.0000 O   0  0  0  0  0  0  0  0  0  0  0  0
   -0.7833   11.8423    0.0000 C   0  0  0  0  0  0  0  0  0  0  0  0
   -1.2931   13.2530    0.0000 O   0  0  0  0  0  0  0  0  0  0  0  0
    0.6770   12.1849    0.0000 N   0  0  0  0  0  0  0  0  0  0  0  0
    2.1770   12.1815    0.0000 C   0  0  0  0  0  0  0  0  0  0  0  0
    2.3546   13.6710    0.0000 C   0  0  0  0  0  0  0  0  0  0  0  0
    1.1534   14.5694    0.0000 C   0  0  0  0  0  0  0  0  0  0  0  0
   -0.2253   13.9785    0.0000 C   0  0  0  0  0  0  0  0  0  0  0  0
   -1.4264   14.8769    0.0000 C   0  0  0  0  0  0  0  0  0  0  0  0
   -1.2489   16.3664    0.0000 C   0  0  0  0  0  0  0  0  0  0  0  0
   -2.4501   17.2648    0.0000 C   0  0  0  0  0  0  0  0  0  0  0  0
   -2.2725   18.7543    0.0000 C   0  0  0  0  0  0  0  0  0  0  0  0
   -0.8939   19.3453    0.0000 C   0  0  0  0  0  0  0  0  0  0  0  0
    0.3073   18.4468    0.0000 C   0  0  0  0  0  0  0  0  0  0  0  0
    0.1298   16.9574    0.0000 C   0  0  0  0  0  0  0  0  0  0  0  0
    1.3309   16.0589    0.0000 C   0  0  0  0  0  0  0  0  0  0  0  0
    3.6358   11.8323    0.0000 C   0  0  0  0  0  0  0  0  0  0  0  0
    4.1520   13.2407    0.0000 O   0  0  0  0  0  0  0  0  0  0  0  0
    4.9747   11.1561    0.0000 N   0  0  0  0  0  0  0  0  0  0  0  0
    6.1216   10.1893    0.0000 C   0  0  0  0  0  0  0  0  0  0  0  0
    7.2150   11.2162    0.0000 C   0  0  0  0  0  0  0  0  0  0  0  0
    8.6510   10.7827    0.0000 C   0  0  0  0  0  0  0  0  0  0  0  0
    9.7444   11.8096    0.0000 C   0  0  0  0  0  0  0  0  0  0  0  0
    9.4018   13.2699    0.0000 C   0  0  0  0  0  0  0  0  0  0  0  0
    7.9658   13.7034    0.0000 C   0  0  0  0  0  0  0  0  0  0  0  0
    6.8724   12.6765    0.0000 C   0  0  0  0  0  0  0  0  0  0  0  0
    7.0146    8.9841    0.0000 C   0  0  0  0  0  0  0  0  0  0  0  0
    8.3154    9.7311    0.0000 O   0  0  0  0  0  0  0  0  0  0  0  0
    7.6056    7.6054    0.0000 N   0  0  0  0  0  0  0  0  0  0  0  0
    8.7712    6.7221    0.0000 C   0  0  0  0  0  0  0  0  0  0  0  0
    7.2806    6.1901    0.0000 C   0  0  0  0  0  0  0  0  0  0  0  0
    5.9458    6.0397    0.0000 C   0  0  0  0  0  0  0  0  0  0  0  0
    4.6779    5.5960    0.0000 C   0  0  0  0  0  0  0  0  0  0  0  0
    3.5406    4.8814    0.0000 C   0  0  0  0  0  0  0  0  0  0  0  0
    2.5907    3.9316    0.0000 N   0  0  0  0  0  0  0  0  0  0  0  0
    1.5931    2.4904    0.0000 C   0  0  0  0  0  0  0  0  0  0  0  0
   -0.1060    3.7487    0.0000 O   0  0  0  0  0  0  0  0  0  0  0  0
   10.1870    6.2267    0.0000 C   0  0  0  0  0  0  0  0  0  0  0  0
   10.8378    7.5782    0.0000 O   0  0  0  0  0  0  0  0  0  0  0  0
   11.4571    5.4287    0.0000 N   0  0  0  0  0  0  0  0  0  0  0  0
   12.5177    4.3680    0.0000 C   0  0  0  0  0  0  0  0  0  0  0  0
   13.6905    5.3032    0.0000 C   0  0  0  0  0  0  0  0  0  0  0  0
   15.0868    4.7552    0.0000 C   0  0  0  0  0  0  0  0  0  0  0  0
   15.3104    3.2720    0.0000 C   0  0  0  0  0  0  0  0  0  0  0  0
   16.7067    2.7240    0.0000 C   0  0  0  0  0  0  0  0  0  0  0  0
   17.8794    3.6592    0.0000 C   0  0  0  0  0  0  0  0  0  0  0  0
   17.6559    5.1425    0.0000 C   0  0  0  0  0  0  0  0  0  0  0  0
   16.2596    5.6905    0.0000 C   0  0  0  0  0  0  0  0  0  0  0  0
   13.3158    3.0979    0.0000 C   0  0  0  0  0  0  0  0  0  0  0  0
   14.6672    3.7487    0.0000 O   0  0  0  0  0  0  0  0  0  0  0  0
   13.8112    1.6821    0.0000 N   0  0  0  0  0  0  0  0  0  0  0  0
   13.9792    0.1915    0.0000 C   0  0  0  0  0  0  0  0  0  0  0  0
   15.4792    0.1915    0.0000 C   0  0  0  0  0  0  0  0  0  0  0  0
   16.2292   -1.1075    0.0000 C   0  0  0  0  0  0  0  0  0  0  0  0
   17.7292   -1.1075    0.0000 C   0  0  0  0  0  0  0  0  0  0  0  0
   18.4792   -2.4065    0.0000 N   0  0  0  0  0  0  0  0  0  0  0  0
   18.4792    0.1915    0.0000 O   0  0  0  0  0  0  0  0  0  0  0  0
   13.8112   -1.2990    0.0000 C   0  0  0  0  0  0  0  0  0  0  0  0
   15.2736   -1.6328    0.0000 O   0  0  0  0  0  0  0  0  0  0  0  0
   13.3158   -2.7149    0.0000 N   0  0  0  0  0  0  0  0  0  0  0  0
   12.5177   -3.9849    0.0000 C   0  0  0  0  0  0  0  0  0  0  0  0
   13.6905   -4.9202    0.0000 C   0  0  0  0  0  0  0  0  0  0  0  0
   13.4669   -6.4034    0.0000 C   0  0  0  0  0  0  0  0  0  0  0  0
   14.6397   -7.3387    0.0000 C   0  0  0  0  0  0  0  0  0  0  0  0
   14.4161   -8.8219    0.0000 N   0  0  0  0  0  0  0  0  0  0  0  0
   15.5889   -9.7571    0.0000 C   0  0  0  0  0  0  0  0  0  0  0  0
   16.9852   -9.2091    0.0000 N   0  0  0  0  0  0  0  0  0  0  0  0
   15.3653  -11.2404    0.0000 N   0  0  0  0  0  0  0  0  0  0  0  0
   11.4571   -5.0456    0.0000 C   0  0  0  0  0  0  0  0  0  0  0  0
   12.3923   -6.2184    0.0000 O   0  0  0  0  0  0  0  0  0  0  0  0
   10.1870   -5.8437    0.0000 N   0  0  0  0  0  0  0  0  0  0  0  0
    8.7712   -6.3391    0.0000 C   0  0  0  0  0  0  0  0  0  0  0  0
    9.1050   -7.8015    0.0000 C   0  0  0  0  0  0  0  0  0  0  0  0
    8.0054   -8.8217    0.0000 C   0  0  0  0  0  0  0  0  0  0  0  0
    8.3392  -10.2841    0.0000 C   0  0  0  0  0  0  0  0  0  0  0  0
    7.2396  -11.3044    0.0000 N   0  0  0  0  0  0  0  0  0  0  0  0
    7.5734  -12.7668    0.0000 C   0  0  0  0  0  0  0  0  0  0  0  0
    8.3693  -12.8104    0.0000 N   0  0  0  0  0  0  0  0  0  0  0  0
    6.7533  -14.0228    0.0000 N   0  0  0  0  0  0  0  0  0  0  0  0
    7.2806   -6.5070    0.0000 C   0  0  0  0  0  0  0  0  0  0  0  0
    7.2806   -8.0070    0.0000 O   0  0  0  0  0  0  0  0  0  0  0  0
    5.7900   -6.3391    0.0000 N   0  0  0  0  0  0  0  0  0  0  0  0
    8.4050   -9.4496    0.0000 C   0  0  0  0  0  0  0  0  0  0  0  0
    9.3635   -8.2958    0.0000 N   0  0  0  0  0  0  0  0  0  0  0  0
    6.9092   -9.5617    0.0000 O   0  0  0  0  0  0  0  0  0  0  0  0
  2  1  1  1
  2  3  1  0
  2  4  1  0
  4  5  1  6
  5  6  1  0
  6  7  2  0
  6  8  1  0
  8  9  1  6
  9 10  1  0
 10 11  2  0
 11 12  1  0
 12 13  2  0
 13 14  1  0
 14 15  2  0
  8 16  1  0
 16 17  1  0
 17 18  2  0
 17 19  1  0
 19 20  1  1
 20 21  1  0
 21 22  1  0
 22 23  1  0
 23 24  1  0
 24 25  2  0
 24 26  1  0
 19 27  1  0
 27 28  1  0
 28 29  2  0
 28 30  1  0
 30 31  1  6
 31 32  1  0
 32 33  1  0
 33 34  1  0
 30 35  1  0
 35 36  1  0
 36 37  2  0
 38 36  1  6
 38 39  1  0
 39 40  1  0
 40 41  1  0
 41 42  2  0
 41 43  1  0
 43 44  2  0
 44 45  1  0
 45 46  2  0
 46 47  1  0
 47 48  2  0
 47 49  1  0
 49 50  2  0
 49 51  1  0
 51 52  1  0
 52 53  1  6
 53 54  1  0
 54 55  2  0
 55 56  1  0
 56 57  2  0
 57 58  1  0
 58 59  2  0
 59 60  1  0
 60 61  2  0
 61 62  1  0
 62 63  2  0
 52 64  1  0
 64 65  2  0
 64 66  1  0
 66 67  1  0
 67 68  1  1
 68 69  1  0
 67 70  1  0
 70 71  2  0
 70 72  1  0
 72 73  1  0
 73 74  1  1
 74 75  1  0
 75 76  1  0
 75 77  2  0
 73 78  1  0
 78 79  2  0
 78 80  1  0
 80 81  1  0
 81 82  1  6
 82 83  1  0
 83 84  2  0
 84 85  1  0
 85 86  2  0
 86 87  1  0
 87 88  2  0
 88 89  1  0
 89 90  2  0
 90 91  1  0
 91 92  2  0
 81 93  1  0
 93 94  2  0
 93 95  1  0
 95 96  1  0
 96 97  1  1
 97 98  2  0
 98 99  1  0
 99100  2  0
100101  1  0
101102  2  0
 96103  1  0
103104  2  0
103105  1  0
106105  1  6
106107  1  0
107108  1  0
108109  1  0
109110  1  0
110111  1  0
111112  1  0
112113  2  0
106114  1  0
114115  2  0
114116  1  0
116117  1  0
117118  1  6
118119  1  0
119120  2  0
120121  1  0
121122  2  0
122123  1  0
123124  2  0
117125  1  0
125126  2  0
125127  1  0
127128  1  0
128129  1  6
129130  1  0
130131  1  0
131132  1  0
131133  2  0
128134  1  0
134135  2  0
134136  1  0
136137  1  0
137138  1  6
138139  1  0
139140  1  0
140141  1  0
141142  1  0
142143  2  0
142144  1  0
137145  1  0
145146  2  0
145147  1  0
147148  1  0
148149  1  1
149150  1  0
150151  1  0
151152  1  0
152153  1  0
153154  2  0
153155  1  0
148156  1  0
156157  2  0
156158  1  0
  4159  1  0
159160  1  0
159161  2  0
 15 10  1  0
158 38  1  0
 48 43  1  0
 63 54  1  0
 92 83  1  0
102 97  1  0
124119  1  0
112 45  1  0
 62 57  1  0
 91 86  1  0
M  END
>  <molecule_chembl_id>  (176) 
CHEMBL4854699

>  <canonical_smiles>  (176) 
C[C@@H](O)[C@H](NC(=O)[C@H](Cc1ccccc1)NC(=O)[C@@H](CCCNC(=N)N)NC(=O)[C@H](CCCN)NC(=O)[C@@H]1CNC(=O)c2cc3cc(c2)C(=O)N[C@H](Cc2ccc4ccccc4c2)C(=O)N[C@@H](CO)C(=O)N[C@@H](CC(N)=O)C(=O)N[C@H](Cc2ccc4ccccc4c2)C(=O)N[C@@H](c2ccccc2)C(=O)N[C@@H](CCCCNC3=O)C(=O)N[C@H](Cc2ccccc2)C(=O)N[C@H](CCC(N)=O)C(=O)N[C@H](CCCNC(=N)N)C(=O)N[C@@H](CCCNC(=N)N)C(=O)N1)C(N)=O

>  <pchembl_value_mean>  (176) 
6.24

>  <inchi>  (176) 
InChI=1S/C109H140N30O22/c1-59(141)87(89(113)144)138-102(157)79(50-61-23-7-3-8-24-61)133-96(151)75(34-19-45-122-108(116)117)125-93(148)73(32-17-42-110)128-104(159)83-57-124-91(146)70-53-69-54-71(55-70)92(147)131-80(51-62-36-38-64-25-11-13-29-67(64)47-62)100(155)137-84(58-140)105(160)135-82(56-86(112)143)101(156)134-81(52-63-37-39-65-26-12-14-30-68(65)48-63)103(158)139-88(66-27-9-4-10-28-66)106(161)130-72(31-15-16-43-120-90(69)145)95(150)132-78(49-60-21-5-2-6-22-60)99(154)129-77(40-41-85(111)142)98(153)127-74(33-18-44-121-107(114)115)94(149)126-76(97(152)136-83)35-20-46-123-109(118)119/h2-14,21-30,36-39,47-48,53-55,59,72-84,87-88,140-141H,15-20,31-35,40-46,49-52,56-58,110H2,1H3,(H2,111,142)(H2,112,143)(H2,113,144)(H,120,145)(H,124,146)(H,125,148)(H,126,149)(H,127,153)(H,128,159)(H,129,154)(H,130,161)(H,131,147)(H,132,150)(H,133,151)(H,134,156)(H,135,160)(H,136,152)(H,137,155)(H,138,157)(H,139,158)(H4,114,115,121)(H4,116,117,122)(H4,118,119,123)/t59-,72+,73+,74-,75-,76+,77-,78-,79+,80-,81-,82+,83+,84+,87+,88+/m1/s1

$$$$

     RDKit          2D

156165  0  0  0  0  0  0  0  0999 V2000
   10.7457  -10.5769    0.0000 C   0  0  0  0  0  0  0  0  0  0  0  0
    9.2499  -10.6890    0.0000 C   0  0  0  0  0  0  0  0  0  0  0  0
    8.5991  -12.0404    0.0000 N   0  0  0  0  0  0  0  0  0  0  0  0
    7.1033  -12.1525    0.0000 C   0  0  0  0  0  0  0  0  0  0  0  0
    6.2583  -10.9132    0.0000 O   0  0  0  0  0  0  0  0  0  0  0  0
    6.4525  -13.5040    0.0000 C   0  0  0  0  0  0  0  0  0  0  0  0
    7.2975  -14.7434    0.0000 C   0  0  0  0  0  0  0  0  0  0  0  0
    8.7933  -14.6313    0.0000 C   0  0  0  0  0  0  0  0  0  0  0  0
    9.6382  -15.8706    0.0000 C   0  0  0  0  0  0  0  0  0  0  0  0
   11.1341  -15.7585    0.0000 C   0  0  0  0  0  0  0  0  0  0  0  0
   11.7849  -14.4071    0.0000 C   0  0  0  0  0  0  0  0  0  0  0  0
   10.9399  -13.1677    0.0000 C   0  0  0  0  0  0  0  0  0  0  0  0
    9.4441  -13.2798    0.0000 C   0  0  0  0  0  0  0  0  0  0  0  0
    4.9567  -13.6161    0.0000 N   0  0  0  0  0  0  0  0  0  0  0  0
    4.1117  -12.3767    0.0000 C   0  0  0  0  0  0  0  0  0  0  0  0
    4.7625  -11.0253    0.0000 O   0  0  0  0  0  0  0  0  0  0  0  0
    2.6159  -12.4888    0.0000 C   0  0  0  0  0  0  0  0  0  0  0  0
    1.9651  -13.8403    0.0000 C   0  0  0  0  0  0  0  0  0  0  0  0
    2.8100  -15.0796    0.0000 C   0  0  0  0  0  0  0  0  0  0  0  0
    2.1592  -16.4311    0.0000 C   0  0  0  0  0  0  0  0  0  0  0  0
    3.0042  -17.6705    0.0000 N   0  0  0  0  0  0  0  0  0  0  0  0
    2.3534  -19.0219    0.0000 C   0  0  0  0  0  0  0  0  0  0  0  0
    0.8576  -19.1340    0.0000 N   0  0  0  0  0  0  0  0  0  0  0  0
    3.1984  -20.2613    0.0000 N   0  0  0  0  0  0  0  0  0  0  0  0
    1.7709  -11.2495    0.0000 N   0  0  0  0  0  0  0  0  0  0  0  0
    2.4217   -9.8980    0.0000 C   0  0  0  0  0  0  0  0  0  0  0  0
    3.9175   -9.7859    0.0000 O   0  0  0  0  0  0  0  0  0  0  0  0
    1.5768   -8.6587    0.0000 C   0  0  0  0  0  0  0  0  0  0  0  0
    0.0810   -8.7708    0.0000 C   0  0  0  0  0  0  0  0  0  0  0  0
   -0.5699  -10.1222    0.0000 C   0  0  0  0  0  0  0  0  0  0  0  0
   -2.0657  -10.2343    0.0000 C   0  0  0  0  0  0  0  0  0  0  0  0
   -2.7165  -11.5858    0.0000 N   0  0  0  0  0  0  0  0  0  0  0  0
    2.2276   -7.3072    0.0000 N   0  0  0  0  0  0  0  0  0  0  0  0
    3.7234   -7.1951    0.0000 C   0  0  0  0  0  0  0  0  0  0  0  0
    4.5684   -8.4345    0.0000 O   0  0  0  0  0  0  0  0  0  0  0  0
    4.3742   -5.8437    0.0000 C   0  0  0  0  0  0  0  0  0  0  0  0
    3.1041   -5.0456    0.0000 C   0  0  0  0  0  0  0  0  0  0  0  0
    2.0435   -3.9849    0.0000 N   0  0  0  0  0  0  0  0  0  0  0  0
    1.2454   -2.7149    0.0000 C   0  0  0  0  0  0  0  0  0  0  0  0
   -0.1060   -3.3657    0.0000 O   0  0  0  0  0  0  0  0  0  0  0  0
    0.7500   -1.2990    0.0000 C   0  0  0  0  0  0  0  0  0  0  0  0
    1.5000    0.0000    0.0000 C   0  0  0  0  0  0  0  0  0  0  0  0
    0.7500    1.2990    0.0000 C   0  0  0  0  0  0  0  0  0  0  0  0
   -0.7500    1.2990    0.0000 C   0  0  0  0  0  0  0  0  0  0  0  0
   -1.5000    0.0000    0.0000 C   0  0  0  0  0  0  0  0  0  0  0  0
   -0.7500   -1.2990    0.0000 C   0  0  0  0  0  0  0  0  0  0  0  0
   -2.7514    0.8271    0.0000 C   0  0  0  0  0  0  0  0  0  0  0  0
   -3.7181   -0.3198    0.0000 O   0  0  0  0  0  0  0  0  0  0  0  0
   -3.7782    1.9205    0.0000 N   0  0  0  0  0  0  0  0  0  0  0  0
   -4.5253    3.2212    0.0000 C   0  0  0  0  0  0  0  0  0  0  0  0
   -5.9040    2.6302    0.0000 C   0  0  0  0  0  0  0  0  0  0  0  0
   -6.0815    1.1408    0.0000 C   0  0  0  0  0  0  0  0  0  0  0  0
   -4.8803    0.2423    0.0000 C   0  0  0  0  0  0  0  0  0  0  0  0
   -5.0578   -1.2471    0.0000 C   0  0  0  0  0  0  0  0  0  0  0  0
   -6.4365   -1.8381    0.0000 C   0  0  0  0  0  0  0  0  0  0  0  0
   -6.6140   -3.3276    0.0000 C   0  0  0  0  0  0  0  0  0  0  0  0
   -7.9927   -3.9186    0.0000 C   0  0  0  0  0  0  0  0  0  0  0  0
   -9.1939   -3.0201    0.0000 C   0  0  0  0  0  0  0  0  0  0  0  0
   -9.0163   -1.5307    0.0000 C   0  0  0  0  0  0  0  0  0  0  0  0
   -7.6377   -0.9397    0.0000 C   0  0  0  0  0  0  0  0  0  0  0  0
   -7.4602    0.5498    0.0000 C   0  0  0  0  0  0  0  0  0  0  0  0
   -4.9522    4.6592    0.0000 C   0  0  0  0  0  0  0  0  0  0  0  0
   -6.4300    4.4021    0.0000 O   0  0  0  0  0  0  0  0  0  0  0  0
   -5.0361    6.1568    0.0000 N   0  0  0  0  0  0  0  0  0  0  0  0
   -4.7722    7.6335    0.0000 C   0  0  0  0  0  0  0  0  0  0  0  0
   -6.2082    8.0669    0.0000 C   0  0  0  0  0  0  0  0  0  0  0  0
   -6.5509    9.5273    0.0000 O   0  0  0  0  0  0  0  0  0  0  0  0
   -4.1750    9.0094    0.0000 C   0  0  0  0  0  0  0  0  0  0  0  0
   -5.4723    9.7624    0.0000 O   0  0  0  0  0  0  0  0  0  0  0  0
   -3.2765   10.2106    0.0000 N   0  0  0  0  0  0  0  0  0  0  0  0
   -2.1253   11.1722    0.0000 C   0  0  0  0  0  0  0  0  0  0  0  0
   -2.9467   12.4273    0.0000 C   0  0  0  0  0  0  0  0  0  0  0  0
   -4.4444   12.3434    0.0000 C   0  0  0  0  0  0  0  0  0  0  0  0
   -5.2658   13.5985    0.0000 N   0  0  0  0  0  0  0  0  0  0  0  0
   -5.1206   11.0045    0.0000 O   0  0  0  0  0  0  0  0  0  0  0  0
   -0.7833   11.8423    0.0000 C   0  0  0  0  0  0  0  0  0  0  0  0
   -1.2931   13.2530    0.0000 O   0  0  0  0  0  0  0  0  0  0  0  0
    0.6770   12.1849    0.0000 N   0  0  0  0  0  0  0  0  0  0  0  0
    2.1770   12.1815    0.0000 C   0  0  0  0  0  0  0  0  0  0  0  0
    2.3546   13.6710    0.0000 C   0  0  0  0  0  0  0  0  0  0  0  0
    1.1534   14.5694    0.0000 C   0  0  0  0  0  0  0  0  0  0  0  0
   -0.2253   13.9785    0.0000 C   0  0  0  0  0  0  0  0  0  0  0  0
   -1.4264   14.8769    0.0000 C   0  0  0  0  0  0  0  0  0  0  0  0
   -1.2489   16.3664    0.0000 C   0  0  0  0  0  0  0  0  0  0  0  0
   -2.4501   17.2648    0.0000 C   0  0  0  0  0  0  0  0  0  0  0  0
   -2.2725   18.7543    0.0000 C   0  0  0  0  0  0  0  0  0  0  0  0
   -0.8939   19.3453    0.0000 C   0  0  0  0  0  0  0  0  0  0  0  0
    0.3073   18.4468    0.0000 C   0  0  0  0  0  0  0  0  0  0  0  0
    0.1298   16.9574    0.0000 C   0  0  0  0  0  0  0  0  0  0  0  0
    1.3309   16.0589    0.0000 C   0  0  0  0  0  0  0  0  0  0  0  0
    3.6358   11.8323    0.0000 C   0  0  0  0  0  0  0  0  0  0  0  0
    4.1520   13.2407    0.0000 O   0  0  0  0  0  0  0  0  0  0  0  0
    4.9747   11.1561    0.0000 N   0  0  0  0  0  0  0  0  0  0  0  0
    6.1216   10.1893    0.0000 C   0  0  0  0  0  0  0  0  0  0  0  0
    7.2150   11.2162    0.0000 C   0  0  0  0  0  0  0  0  0  0  0  0
    8.6510   10.7827    0.0000 C   0  0  0  0  0  0  0  0  0  0  0  0
    9.7444   11.8096    0.0000 C   0  0  0  0  0  0  0  0  0  0  0  0
    9.4018   13.2699    0.0000 C   0  0  0  0  0  0  0  0  0  0  0  0
    7.9658   13.7034    0.0000 C   0  0  0  0  0  0  0  0  0  0  0  0
    6.8724   12.6765    0.0000 C   0  0  0  0  0  0  0  0  0  0  0  0
    7.0146    8.9841    0.0000 C   0  0  0  0  0  0  0  0  0  0  0  0
    8.3154    9.7311    0.0000 O   0  0  0  0  0  0  0  0  0  0  0  0
    7.6056    7.6054    0.0000 N   0  0  0  0  0  0  0  0  0  0  0  0
    8.7712    6.7221    0.0000 C   0  0  0  0  0  0  0  0  0  0  0  0
    7.2806    6.1901    0.0000 C   0  0  0  0  0  0  0  0  0  0  0  0
    5.9458    6.0397    0.0000 C   0  0  0  0  0  0  0  0  0  0  0  0
    4.6779    5.5960    0.0000 C   0  0  0  0  0  0  0  0  0  0  0  0
    3.5406    4.8814    0.0000 C   0  0  0  0  0  0  0  0  0  0  0  0
    2.5907    3.9316    0.0000 N   0  0  0  0  0  0  0  0  0  0  0  0
    1.5931    2.4904    0.0000 C   0  0  0  0  0  0  0  0  0  0  0  0
   -0.1060    3.7487    0.0000 O   0  0  0  0  0  0  0  0  0  0  0  0
   10.1870    6.2267    0.0000 C   0  0  0  0  0  0  0  0  0  0  0  0
   10.8378    7.5782    0.0000 O   0  0  0  0  0  0  0  0  0  0  0  0
   11.4571    5.4287    0.0000 N   0  0  0  0  0  0  0  0  0  0  0  0
   12.5177    4.3680    0.0000 C   0  0  0  0  0  0  0  0  0  0  0  0
   13.6905    5.3032    0.0000 C   0  0  0  0  0  0  0  0  0  0  0  0
   15.0868    4.7552    0.0000 C   0  0  0  0  0  0  0  0  0  0  0  0
   15.3104    3.2720    0.0000 C   0  0  0  0  0  0  0  0  0  0  0  0
   16.7067    2.7240    0.0000 C   0  0  0  0  0  0  0  0  0  0  0  0
   17.8794    3.6592    0.0000 C   0  0  0  0  0  0  0  0  0  0  0  0
   17.6559    5.1425    0.0000 C   0  0  0  0  0  0  0  0  0  0  0  0
   16.2596    5.6905    0.0000 C   0  0  0  0  0  0  0  0  0  0  0  0
   13.3158    3.0979    0.0000 C   0  0  0  0  0  0  0  0  0  0  0  0
   14.6672    3.7487    0.0000 O   0  0  0  0  0  0  0  0  0  0  0  0
   13.8112    1.6821    0.0000 N   0  0  0  0  0  0  0  0  0  0  0  0
   13.9792    0.1915    0.0000 C   0  0  0  0  0  0  0  0  0  0  0  0
   15.4792    0.1915    0.0000 C   0  0  0  0  0  0  0  0  0  0  0  0
   16.2292   -1.1075    0.0000 O   0  0  0  0  0  0  0  0  0  0  0  0
   13.8112   -1.2990    0.0000 C   0  0  0  0  0  0  0  0  0  0  0  0
   15.2736   -1.6328    0.0000 O   0  0  0  0  0  0  0  0  0  0  0  0
   13.3158   -2.7149    0.0000 N   0  0  0  0  0  0  0  0  0  0  0  0
   12.5177   -3.9849    0.0000 C   0  0  0  0  0  0  0  0  0  0  0  0
   13.6905   -4.9202    0.0000 C   0  0  0  0  0  0  0  0  0  0  0  0
   13.4669   -6.4034    0.0000 C   0  0  0  0  0  0  0  0  0  0  0  0
   14.6397   -7.3387    0.0000 C   0  0  0  0  0  0  0  0  0  0  0  0
   14.4161   -8.8219    0.0000 N   0  0  0  0  0  0  0  0  0  0  0  0
   15.5889   -9.7571    0.0000 C   0  0  0  0  0  0  0  0  0  0  0  0
   16.9852   -9.2091    0.0000 N   0  0  0  0  0  0  0  0  0  0  0  0
   15.3653  -11.2404    0.0000 N   0  0  0  0  0  0  0  0  0  0  0  0
   11.4571   -5.0456    0.0000 C   0  0  0  0  0  0  0  0  0  0  0  0
   12.3923   -6.2184    0.0000 O   0  0  0  0  0  0  0  0  0  0  0  0
   10.1870   -5.8437    0.0000 N   0  0  0  0  0  0  0  0  0  0  0  0
    8.7712   -6.3391    0.0000 C   0  0  0  0  0  0  0  0  0  0  0  0
    9.1050   -7.8015    0.0000 C   0  0  0  0  0  0  0  0  0  0  0  0
    8.0054   -8.8217    0.0000 C   0  0  0  0  0  0  0  0  0  0  0  0
    8.3392  -10.2841    0.0000 C   0  0  0  0  0  0  0  0  0  0  0  0
    7.2396  -11.3044    0.0000 N   0  0  0  0  0  0  0  0  0  0  0  0
    7.5734  -12.7668    0.0000 C   0  0  0  0  0  0  0  0  0  0  0  0
    8.3693  -12.8104    0.0000 N   0  0  0  0  0  0  0  0  0  0  0  0
    6.7533  -14.0228    0.0000 N   0  0  0  0  0  0  0  0  0  0  0  0
    7.2806   -6.5070    0.0000 C   0  0  0  0  0  0  0  0  0  0  0  0
    7.2806   -8.0070    0.0000 O   0  0  0  0  0  0  0  0  0  0  0  0
    5.7900   -6.3391    0.0000 N   0  0  0  0  0  0  0  0  0  0  0  0
    8.4050   -9.4496    0.0000 C   0  0  0  0  0  0  0  0  0  0  0  0
    9.3635   -8.2958    0.0000 N   0  0  0  0  0  0  0  0  0  0  0  0
    6.9092   -9.5617    0.0000 O   0  0  0  0  0  0  0  0  0  0  0  0
  2  1  1  1
  2  3  1  0
  3  4  1  0
  4  5  2  0
  4  6  1  0
  6  7  1  6
  7  8  1  0
  8  9  2  0
  9 10  1  0
 10 11  2  0
 11 12  1  0
 12 13  2  0
  6 14  1  0
 14 15  1  0
 15 16  2  0
 15 17  1  0
 17 18  1  1
 18 19  1  0
 19 20  1  0
 20 21  1  0
 21 22  1  0
 22 23  2  0
 22 24  1  0
 17 25  1  0
 25 26  1  0
 26 27  2  0
 26 28  1  0
 28 29  1  6
 29 30  1  0
 30 31  1  0
 31 32  1  0
 28 33  1  0
 33 34  1  0
 34 35  2  0
 36 34  1  6
 36 37  1  0
 37 38  1  0
 38 39  1  0
 39 40  2  0
 39 41  1  0
 41 42  2  0
 42 43  1  0
 43 44  2  0
 44 45  1  0
 45 46  2  0
 45 47  1  0
 47 48  2  0
 47 49  1  0
 49 50  1  0
 50 51  1  6
 51 52  1  0
 52 53  2  0
 53 54  1  0
 54 55  2  0
 55 56  1  0
 56 57  2  0
 57 58  1  0
 58 59  2  0
 59 60  1  0
 60 61  2  0
 50 62  1  0
 62 63  2  0
 62 64  1  0
 64 65  1  0
 65 66  1  1
 66 67  1  0
 65 68  1  0
 68 69  2  0
 68 70  1  0
 70 71  1  0
 71 72  1  1
 72 73  1  0
 73 74  1  0
 73 75  2  0
 71 76  1  0
 76 77  2  0
 76 78  1  0
 78 79  1  0
 79 80  1  6
 80 81  1  0
 81 82  2  0
 82 83  1  0
 83 84  2  0
 84 85  1  0
 85 86  2  0
 86 87  1  0
 87 88  2  0
 88 89  1  0
 89 90  2  0
 79 91  1  0
 91 92  2  0
 91 93  1  0
 93 94  1  0
 94 95  1  1
 95 96  2  0
 96 97  1  0
 97 98  2  0
 98 99  1  0
 99100  2  0
 94101  1  0
101102  2  0
101103  1  0
104103  1  6
104105  1  0
105106  1  0
106107  1  0
107108  1  0
108109  1  0
109110  1  0
110111  2  0
104112  1  0
112113  2  0
112114  1  0
114115  1  0
115116  1  6
116117  1  0
117118  2  0
118119  1  0
119120  2  0
120121  1  0
121122  2  0
115123  1  0
123124  2  0
123125  1  0
125126  1  0
126127  1  6
127128  1  0
126129  1  0
129130  2  0
129131  1  0
131132  1  0
132133  1  6
133134  1  0
134135  1  0
135136  1  0
136137  1  0
137138  2  0
137139  1  0
132140  1  0
140141  2  0
140142  1  0
142143  1  0
143144  1  1
144145  1  0
145146  1  0
146147  1  0
147148  1  0
148149  2  0
148150  1  0
143151  1  0
151152  2  0
151153  1  0
  2154  1  0
154155  1  0
154156  2  0
 13  8  1  0
153 36  1  0
 46 41  1  0
 61 52  1  0
 90 81  1  0
100 95  1  0
122117  1  0
110 43  1  0
 60 55  1  0
 89 84  1  0
M  END
>  <molecule_chembl_id>  (177) 
CHEMBL4864561

>  <canonical_smiles>  (177) 
C[C@@H](NC(=O)[C@H](Cc1ccccc1)NC(=O)[C@@H](CCCNC(=N)N)NC(=O)[C@H](CCCN)NC(=O)[C@@H]1CNC(=O)c2cc3cc(c2)C(=O)N[C@H](Cc2ccc4ccccc4c2)C(=O)N[C@@H](CO)C(=O)N[C@@H](CC(N)=O)C(=O)N[C@H](Cc2ccc4ccccc4c2)C(=O)N[C@@H](c2ccccc2)C(=O)N[C@@H](CCCCNC3=O)C(=O)N[C@H](Cc2ccccc2)C(=O)N[C@H](CO)C(=O)N[C@H](CCCNC(=N)N)C(=O)N[C@@H](CCCNC(=N)N)C(=O)N1)C(N)=O

>  <pchembl_value_mean>  (177) 
6.25

>  <inchi>  (177) 
InChI=1S/C106H135N29O21/c1-58(86(109)139)121-95(148)76(47-59-21-5-2-6-22-59)128-93(146)74(34-19-43-118-105(112)113)122-90(143)72(32-17-40-107)124-100(153)81-55-120-88(141)69-51-68-52-70(53-69)89(142)127-78(49-61-36-38-63-25-11-13-29-66(63)45-61)97(150)134-83(57-137)102(155)131-80(54-84(108)138)98(151)130-79(50-62-37-39-64-26-12-14-30-67(64)46-62)99(152)135-85(65-27-9-4-10-28-65)103(156)126-71(31-15-16-41-116-87(68)140)92(145)129-77(48-60-23-7-3-8-24-60)96(149)133-82(56-136)101(154)125-73(33-18-42-117-104(110)111)91(144)123-75(94(147)132-81)35-20-44-119-106(114)115/h2-14,21-30,36-39,45-46,51-53,58,71-83,85,136-137H,15-20,31-35,40-44,47-50,54-57,107H2,1H3,(H2,108,138)(H2,109,139)(H,116,140)(H,120,141)(H,121,148)(H,122,143)(H,123,144)(H,124,153)(H,125,154)(H,126,156)(H,127,142)(H,128,146)(H,129,145)(H,130,151)(H,131,155)(H,132,147)(H,133,149)(H,134,150)(H,135,152)(H4,110,111,117)(H4,112,113,118)(H4,114,115,119)/t58-,71+,72+,73-,74-,75+,76+,77-,78-,79-,80+,81+,82-,83+,85+/m1/s1

$$$$

     RDKit          2D

160169  0  0  0  0  0  0  0  0999 V2000
   10.7457  -10.5769    0.0000 C   0  0  0  0  0  0  0  0  0  0  0  0
    9.2499  -10.6890    0.0000 C   0  0  0  0  0  0  0  0  0  0  0  0
    8.5991  -12.0404    0.0000 N   0  0  0  0  0  0  0  0  0  0  0  0
    7.1033  -12.1525    0.0000 C   0  0  0  0  0  0  0  0  0  0  0  0
    6.2583  -10.9132    0.0000 O   0  0  0  0  0  0  0  0  0  0  0  0
    6.4525  -13.5040    0.0000 C   0  0  0  0  0  0  0  0  0  0  0  0
    7.2975  -14.7434    0.0000 C   0  0  0  0  0  0  0  0  0  0  0  0
    8.7933  -14.6313    0.0000 C   0  0  0  0  0  0  0  0  0  0  0  0
    9.6382  -15.8706    0.0000 C   0  0  0  0  0  0  0  0  0  0  0  0
   11.1341  -15.7585    0.0000 C   0  0  0  0  0  0  0  0  0  0  0  0
   11.7849  -14.4071    0.0000 C   0  0  0  0  0  0  0  0  0  0  0  0
   10.9399  -13.1677    0.0000 C   0  0  0  0  0  0  0  0  0  0  0  0
    9.4441  -13.2798    0.0000 C   0  0  0  0  0  0  0  0  0  0  0  0
    4.9567  -13.6161    0.0000 N   0  0  0  0  0  0  0  0  0  0  0  0
    4.1117  -12.3767    0.0000 C   0  0  0  0  0  0  0  0  0  0  0  0
    4.7625  -11.0253    0.0000 O   0  0  0  0  0  0  0  0  0  0  0  0
    2.6159  -12.4888    0.0000 C   0  0  0  0  0  0  0  0  0  0  0  0
    1.9651  -13.8403    0.0000 C   0  0  0  0  0  0  0  0  0  0  0  0
    2.8100  -15.0796    0.0000 C   0  0  0  0  0  0  0  0  0  0  0  0
    2.1592  -16.4311    0.0000 C   0  0  0  0  0  0  0  0  0  0  0  0
    3.0042  -17.6705    0.0000 N   0  0  0  0  0  0  0  0  0  0  0  0
    2.3534  -19.0219    0.0000 C   0  0  0  0  0  0  0  0  0  0  0  0
    0.8576  -19.1340    0.0000 N   0  0  0  0  0  0  0  0  0  0  0  0
    3.1984  -20.2613    0.0000 N   0  0  0  0  0  0  0  0  0  0  0  0
    1.7709  -11.2495    0.0000 N   0  0  0  0  0  0  0  0  0  0  0  0
    2.4217   -9.8980    0.0000 C   0  0  0  0  0  0  0  0  0  0  0  0
    3.9175   -9.7859    0.0000 O   0  0  0  0  0  0  0  0  0  0  0  0
    1.5768   -8.6587    0.0000 C   0  0  0  0  0  0  0  0  0  0  0  0
    0.0810   -8.7708    0.0000 C   0  0  0  0  0  0  0  0  0  0  0  0
   -0.5699  -10.1222    0.0000 C   0  0  0  0  0  0  0  0  0  0  0  0
   -2.0657  -10.2343    0.0000 C   0  0  0  0  0  0  0  0  0  0  0  0
   -2.7165  -11.5858    0.0000 N   0  0  0  0  0  0  0  0  0  0  0  0
    2.2276   -7.3072    0.0000 N   0  0  0  0  0  0  0  0  0  0  0  0
    3.7234   -7.1951    0.0000 C   0  0  0  0  0  0  0  0  0  0  0  0
    4.5684   -8.4345    0.0000 O   0  0  0  0  0  0  0  0  0  0  0  0
    4.3742   -5.8437    0.0000 C   0  0  0  0  0  0  0  0  0  0  0  0
    3.1041   -5.0456    0.0000 C   0  0  0  0  0  0  0  0  0  0  0  0
    2.0435   -3.9849    0.0000 N   0  0  0  0  0  0  0  0  0  0  0  0
    1.2454   -2.7149    0.0000 C   0  0  0  0  0  0  0  0  0  0  0  0
   -0.1060   -3.3657    0.0000 O   0  0  0  0  0  0  0  0  0  0  0  0
    0.7500   -1.2990    0.0000 C   0  0  0  0  0  0  0  0  0  0  0  0
    1.5000    0.0000    0.0000 C   0  0  0  0  0  0  0  0  0  0  0  0
    0.7500    1.2990    0.0000 C   0  0  0  0  0  0  0  0  0  0  0  0
   -0.7500    1.2990    0.0000 C   0  0  0  0  0  0  0  0  0  0  0  0
   -1.5000    0.0000    0.0000 C   0  0  0  0  0  0  0  0  0  0  0  0
   -0.7500   -1.2990    0.0000 C   0  0  0  0  0  0  0  0  0  0  0  0
   -2.7514    0.8271    0.0000 C   0  0  0  0  0  0  0  0  0  0  0  0
   -3.7181   -0.3198    0.0000 O   0  0  0  0  0  0  0  0  0  0  0  0
   -3.7782    1.9205    0.0000 N   0  0  0  0  0  0  0  0  0  0  0  0
   -4.5253    3.2212    0.0000 C   0  0  0  0  0  0  0  0  0  0  0  0
   -5.9040    2.6302    0.0000 C   0  0  0  0  0  0  0  0  0  0  0  0
   -6.0815    1.1408    0.0000 C   0  0  0  0  0  0  0  0  0  0  0  0
   -4.8803    0.2423    0.0000 C   0  0  0  0  0  0  0  0  0  0  0  0
   -5.0578   -1.2471    0.0000 C   0  0  0  0  0  0  0  0  0  0  0  0
   -6.4365   -1.8381    0.0000 C   0  0  0  0  0  0  0  0  0  0  0  0
   -6.6140   -3.3276    0.0000 C   0  0  0  0  0  0  0  0  0  0  0  0
   -7.9927   -3.9186    0.0000 C   0  0  0  0  0  0  0  0  0  0  0  0
   -9.1939   -3.0201    0.0000 C   0  0  0  0  0  0  0  0  0  0  0  0
   -9.0163   -1.5307    0.0000 C   0  0  0  0  0  0  0  0  0  0  0  0
   -7.6377   -0.9397    0.0000 C   0  0  0  0  0  0  0  0  0  0  0  0
   -7.4602    0.5498    0.0000 C   0  0  0  0  0  0  0  0  0  0  0  0
   -4.9522    4.6592    0.0000 C   0  0  0  0  0  0  0  0  0  0  0  0
   -6.4300    4.4021    0.0000 O   0  0  0  0  0  0  0  0  0  0  0  0
   -5.0361    6.1568    0.0000 N   0  0  0  0  0  0  0  0  0  0  0  0
   -4.7722    7.6335    0.0000 C   0  0  0  0  0  0  0  0  0  0  0  0
   -6.2082    8.0669    0.0000 C   0  0  0  0  0  0  0  0  0  0  0  0
   -6.5509    9.5273    0.0000 O   0  0  0  0  0  0  0  0  0  0  0  0
   -4.1750    9.0094    0.0000 C   0  0  0  0  0  0  0  0  0  0  0  0
   -5.4723    9.7624    0.0000 O   0  0  0  0  0  0  0  0  0  0  0  0
   -3.2765   10.2106    0.0000 N   0  0  0  0  0  0  0  0  0  0  0  0
   -2.1253   11.1722    0.0000 C   0  0  0  0  0  0  0  0  0  0  0  0
   -2.9467   12.4273    0.0000 C   0  0  0  0  0  0  0  0  0  0  0  0
   -4.4444   12.3434    0.0000 C   0  0  0  0  0  0  0  0  0  0  0  0
   -5.2658   13.5985    0.0000 N   0  0  0  0  0  0  0  0  0  0  0  0
   -5.1206   11.0045    0.0000 O   0  0  0  0  0  0  0  0  0  0  0  0
   -0.7833   11.8423    0.0000 C   0  0  0  0  0  0  0  0  0  0  0  0
   -1.2931   13.2530    0.0000 O   0  0  0  0  0  0  0  0  0  0  0  0
    0.6770   12.1849    0.0000 N   0  0  0  0  0  0  0  0  0  0  0  0
    2.1770   12.1815    0.0000 C   0  0  0  0  0  0  0  0  0  0  0  0
    2.3546   13.6710    0.0000 C   0  0  0  0  0  0  0  0  0  0  0  0
    1.1534   14.5694    0.0000 C   0  0  0  0  0  0  0  0  0  0  0  0
   -0.2253   13.9785    0.0000 C   0  0  0  0  0  0  0  0  0  0  0  0
   -1.4264   14.8769    0.0000 C   0  0  0  0  0  0  0  0  0  0  0  0
   -1.2489   16.3664    0.0000 C   0  0  0  0  0  0  0  0  0  0  0  0
   -2.4501   17.2648    0.0000 C   0  0  0  0  0  0  0  0  0  0  0  0
   -2.2725   18.7543    0.0000 C   0  0  0  0  0  0  0  0  0  0  0  0
   -0.8939   19.3453    0.0000 C   0  0  0  0  0  0  0  0  0  0  0  0
    0.3073   18.4468    0.0000 C   0  0  0  0  0  0  0  0  0  0  0  0
    0.1298   16.9574    0.0000 C   0  0  0  0  0  0  0  0  0  0  0  0
    1.3309   16.0589    0.0000 C   0  0  0  0  0  0  0  0  0  0  0  0
    3.6358   11.8323    0.0000 C   0  0  0  0  0  0  0  0  0  0  0  0
    4.1520   13.2407    0.0000 O   0  0  0  0  0  0  0  0  0  0  0  0
    4.9747   11.1561    0.0000 N   0  0  0  0  0  0  0  0  0  0  0  0
    6.1216   10.1893    0.0000 C   0  0  0  0  0  0  0  0  0  0  0  0
    7.2150   11.2162    0.0000 C   0  0  0  0  0  0  0  0  0  0  0  0
    8.6510   10.7827    0.0000 C   0  0  0  0  0  0  0  0  0  0  0  0
    9.7444   11.8096    0.0000 C   0  0  0  0  0  0  0  0  0  0  0  0
    9.4018   13.2699    0.0000 C   0  0  0  0  0  0  0  0  0  0  0  0
    7.9658   13.7034    0.0000 C   0  0  0  0  0  0  0  0  0  0  0  0
    6.8724   12.6765    0.0000 C   0  0  0  0  0  0  0  0  0  0  0  0
    7.0146    8.9841    0.0000 C   0  0  0  0  0  0  0  0  0  0  0  0
    8.3154    9.7311    0.0000 O   0  0  0  0  0  0  0  0  0  0  0  0
    7.6056    7.6054    0.0000 N   0  0  0  0  0  0  0  0  0  0  0  0
    8.7712    6.7221    0.0000 C   0  0  0  0  0  0  0  0  0  0  0  0
    7.2806    6.1901    0.0000 C   0  0  0  0  0  0  0  0  0  0  0  0
    5.9458    6.0397    0.0000 C   0  0  0  0  0  0  0  0  0  0  0  0
    4.6779    5.5960    0.0000 C   0  0  0  0  0  0  0  0  0  0  0  0
    3.5406    4.8814    0.0000 C   0  0  0  0  0  0  0  0  0  0  0  0
    2.5907    3.9316    0.0000 N   0  0  0  0  0  0  0  0  0  0  0  0
    1.5931    2.4904    0.0000 C   0  0  0  0  0  0  0  0  0  0  0  0
   -0.1060    3.7487    0.0000 O   0  0  0  0  0  0  0  0  0  0  0  0
   10.1870    6.2267    0.0000 C   0  0  0  0  0  0  0  0  0  0  0  0
   10.8378    7.5782    0.0000 O   0  0  0  0  0  0  0  0  0  0  0  0
   11.4571    5.4287    0.0000 N   0  0  0  0  0  0  0  0  0  0  0  0
   12.5177    4.3680    0.0000 C   0  0  0  0  0  0  0  0  0  0  0  0
   13.6905    5.3032    0.0000 C   0  0  0  0  0  0  0  0  0  0  0  0
   15.0868    4.7552    0.0000 C   0  0  0  0  0  0  0  0  0  0  0  0
   15.3104    3.2720    0.0000 C   0  0  0  0  0  0  0  0  0  0  0  0
   16.7067    2.7240    0.0000 C   0  0  0  0  0  0  0  0  0  0  0  0
   17.8794    3.6592    0.0000 C   0  0  0  0  0  0  0  0  0  0  0  0
   19.2757    3.1112    0.0000 F   0  0  0  0  0  0  0  0  0  0  0  0
   17.6559    5.1425    0.0000 C   0  0  0  0  0  0  0  0  0  0  0  0
   16.2596    5.6905    0.0000 C   0  0  0  0  0  0  0  0  0  0  0  0
   13.3158    3.0979    0.0000 C   0  0  0  0  0  0  0  0  0  0  0  0
   14.6672    3.7487    0.0000 O   0  0  0  0  0  0  0  0  0  0  0  0
   13.8112    1.6821    0.0000 N   0  0  0  0  0  0  0  0  0  0  0  0
   13.9792    0.1915    0.0000 C   0  0  0  0  0  0  0  0  0  0  0  0
   15.4792    0.1915    0.0000 C   0  0  0  0  0  0  0  0  0  0  0  0
   16.2292   -1.1075    0.0000 C   0  0  0  0  0  0  0  0  0  0  0  0
   17.7292   -1.1075    0.0000 C   0  0  0  0  0  0  0  0  0  0  0  0
   18.4792   -2.4065    0.0000 N   0  0  0  0  0  0  0  0  0  0  0  0
   18.4792    0.1915    0.0000 O   0  0  0  0  0  0  0  0  0  0  0  0
   13.8112   -1.2990    0.0000 C   0  0  0  0  0  0  0  0  0  0  0  0
   15.2736   -1.6328    0.0000 O   0  0  0  0  0  0  0  0  0  0  0  0
   13.3158   -2.7149    0.0000 N   0  0  0  0  0  0  0  0  0  0  0  0
   12.5177   -3.9849    0.0000 C   0  0  0  0  0  0  0  0  0  0  0  0
   13.6905   -4.9202    0.0000 C   0  0  0  0  0  0  0  0  0  0  0  0
   13.4669   -6.4034    0.0000 C   0  0  0  0  0  0  0  0  0  0  0  0
   14.6397   -7.3387    0.0000 C   0  0  0  0  0  0  0  0  0  0  0  0
   14.4161   -8.8219    0.0000 N   0  0  0  0  0  0  0  0  0  0  0  0
   15.5889   -9.7571    0.0000 C   0  0  0  0  0  0  0  0  0  0  0  0
   16.9852   -9.2091    0.0000 N   0  0  0  0  0  0  0  0  0  0  0  0
   15.3653  -11.2404    0.0000 N   0  0  0  0  0  0  0  0  0  0  0  0
   11.4571   -5.0456    0.0000 C   0  0  0  0  0  0  0  0  0  0  0  0
   12.3923   -6.2184    0.0000 O   0  0  0  0  0  0  0  0  0  0  0  0
   10.1870   -5.8437    0.0000 N   0  0  0  0  0  0  0  0  0  0  0  0
    8.7712   -6.3391    0.0000 C   0  0  0  0  0  0  0  0  0  0  0  0
    9.1050   -7.8015    0.0000 C   0  0  0  0  0  0  0  0  0  0  0  0
    8.0054   -8.8217    0.0000 C   0  0  0  0  0  0  0  0  0  0  0  0
    8.3392  -10.2841    0.0000 C   0  0  0  0  0  0  0  0  0  0  0  0
    7.2396  -11.3044    0.0000 N   0  0  0  0  0  0  0  0  0  0  0  0
    7.5734  -12.7668    0.0000 C   0  0  0  0  0  0  0  0  0  0  0  0
    8.3693  -12.8104    0.0000 N   0  0  0  0  0  0  0  0  0  0  0  0
    6.7533  -14.0228    0.0000 N   0  0  0  0  0  0  0  0  0  0  0  0
    7.2806   -6.5070    0.0000 C   0  0  0  0  0  0  0  0  0  0  0  0
    7.2806   -8.0070    0.0000 O   0  0  0  0  0  0  0  0  0  0  0  0
    5.7900   -6.3391    0.0000 N   0  0  0  0  0  0  0  0  0  0  0  0
    8.4050   -9.4496    0.0000 C   0  0  0  0  0  0  0  0  0  0  0  0
    9.3635   -8.2958    0.0000 N   0  0  0  0  0  0  0  0  0  0  0  0
    6.9092   -9.5617    0.0000 O   0  0  0  0  0  0  0  0  0  0  0  0
  2  1  1  1
  2  3  1  0
  3  4  1  0
  4  5  2  0
  4  6  1  0
  6  7  1  6
  7  8  1  0
  8  9  2  0
  9 10  1  0
 10 11  2  0
 11 12  1  0
 12 13  2  0
  6 14  1  0
 14 15  1  0
 15 16  2  0
 15 17  1  0
 17 18  1  1
 18 19  1  0
 19 20  1  0
 20 21  1  0
 21 22  1  0
 22 23  2  0
 22 24  1  0
 17 25  1  0
 25 26  1  0
 26 27  2  0
 26 28  1  0
 28 29  1  6
 29 30  1  0
 30 31  1  0
 31 32  1  0
 28 33  1  0
 33 34  1  0
 34 35  2  0
 36 34  1  6
 36 37  1  0
 37 38  1  0
 38 39  1  0
 39 40  2  0
 39 41  1  0
 41 42  2  0
 42 43  1  0
 43 44  2  0
 44 45  1  0
 45 46  2  0
 45 47  1  0
 47 48  2  0
 47 49  1  0
 49 50  1  0
 50 51  1  6
 51 52  1  0
 52 53  2  0
 53 54  1  0
 54 55  2  0
 55 56  1  0
 56 57  2  0
 57 58  1  0
 58 59  2  0
 59 60  1  0
 60 61  2  0
 50 62  1  0
 62 63  2  0
 62 64  1  0
 64 65  1  0
 65 66  1  1
 66 67  1  0
 65 68  1  0
 68 69  2  0
 68 70  1  0
 70 71  1  0
 71 72  1  1
 72 73  1  0
 73 74  1  0
 73 75  2  0
 71 76  1  0
 76 77  2  0
 76 78  1  0
 78 79  1  0
 79 80  1  6
 80 81  1  0
 81 82  2  0
 82 83  1  0
 83 84  2  0
 84 85  1  0
 85 86  2  0
 86 87  1  0
 87 88  2  0
 88 89  1  0
 89 90  2  0
 79 91  1  0
 91 92  2  0
 91 93  1  0
 93 94  1  0
 94 95  1  1
 95 96  2  0
 96 97  1  0
 97 98  2  0
 98 99  1  0
 99100  2  0
 94101  1  0
101102  2  0
101103  1  0
104103  1  6
104105  1  0
105106  1  0
106107  1  0
107108  1  0
108109  1  0
109110  1  0
110111  2  0
104112  1  0
112113  2  0
112114  1  0
114115  1  0
115116  1  6
116117  1  0
117118  2  0
118119  1  0
119120  2  0
120121  1  0
120122  1  0
122123  2  0
115124  1  0
124125  2  0
124126  1  0
126127  1  0
127128  1  6
128129  1  0
129130  1  0
130131  1  0
130132  2  0
127133  1  0
133134  2  0
133135  1  0
135136  1  0
136137  1  6
137138  1  0
138139  1  0
139140  1  0
140141  1  0
141142  2  0
141143  1  0
136144  1  0
144145  2  0
144146  1  0
146147  1  0
147148  1  1
148149  1  0
149150  1  0
150151  1  0
151152  1  0
152153  2  0
152154  1  0
147155  1  0
155156  2  0
155157  1  0
  2158  1  0
158159  1  0
158160  2  0
 13  8  1  0
157 36  1  0
 46 41  1  0
 61 52  1  0
 90 81  1  0
100 95  1  0
123117  1  0
110 43  1  0
 60 55  1  0
 89 84  1  0
M  END
>  <molecule_chembl_id>  (178) 
CHEMBL4850331

>  <canonical_smiles>  (178) 
C[C@@H](NC(=O)[C@H](Cc1ccccc1)NC(=O)[C@@H](CCCNC(=N)N)NC(=O)[C@H](CCCN)NC(=O)[C@@H]1CNC(=O)c2cc3cc(c2)C(=O)N[C@H](Cc2ccc4ccccc4c2)C(=O)N[C@@H](CO)C(=O)N[C@@H](CC(N)=O)C(=O)N[C@H](Cc2ccc4ccccc4c2)C(=O)N[C@@H](c2ccccc2)C(=O)N[C@@H](CCCCNC3=O)C(=O)N[C@H](Cc2ccc(F)cc2)C(=O)N[C@H](CCC(N)=O)C(=O)N[C@H](CCCNC(=N)N)C(=O)N[C@@H](CCCNC(=N)N)C(=O)N1)C(N)=O

>  <pchembl_value_mean>  (178) 
6.26

>  <inchi>  (178) 
InChI=1S/C108H137FN30O21/c1-58(88(113)143)125-98(153)78(48-59-18-4-2-5-19-59)133-95(150)75(29-16-44-122-107(116)117)126-92(147)73(27-14-41-110)129-103(158)83-56-124-90(145)69-52-68-53-70(54-69)91(146)132-80(50-61-31-35-63-20-8-10-24-66(63)46-61)100(155)138-84(57-140)104(159)136-82(55-86(112)142)101(156)135-81(51-62-32-36-64-21-9-11-25-67(64)47-62)102(157)139-87(65-22-6-3-7-23-65)105(160)131-72(26-12-13-42-120-89(68)144)94(149)134-79(49-60-33-37-71(109)38-34-60)99(154)130-77(39-40-85(111)141)97(152)128-74(28-15-43-121-106(114)115)93(148)127-76(96(151)137-83)30-17-45-123-108(118)119/h2-11,18-25,31-38,46-47,52-54,58,72-84,87,140H,12-17,26-30,39-45,48-51,55-57,110H2,1H3,(H2,111,141)(H2,112,142)(H2,113,143)(H,120,144)(H,124,145)(H,125,153)(H,126,147)(H,127,148)(H,128,152)(H,129,158)(H,130,154)(H,131,160)(H,132,146)(H,133,150)(H,134,149)(H,135,156)(H,136,159)(H,137,151)(H,138,155)(H,139,157)(H4,114,115,121)(H4,116,117,122)(H4,118,119,123)/t58-,72+,73+,74-,75-,76+,77-,78+,79-,80-,81-,82+,83+,84+,87+/m1/s1

$$$$

     RDKit          2D

 45 51  0  0  0  0  0  0  0  0999 V2000
   -3.3818  -11.6074    0.0000 C   0  0  0  0  0  0  0  0  0  0  0  0
   -2.1424  -10.7624    0.0000 C   0  0  0  0  0  0  0  0  0  0  0  0
   -0.7910  -11.4132    0.0000 C   0  0  0  0  0  0  0  0  0  0  0  0
    0.4484  -10.5682    0.0000 C   0  0  0  0  0  0  0  0  0  0  0  0
    1.7998  -11.2191    0.0000 N   0  0  0  0  0  0  0  0  0  0  0  0
    0.3363   -9.0724    0.0000 N   0  0  0  0  0  0  0  0  0  0  0  0
   -1.0152   -8.4216    0.0000 C   0  0  0  0  0  0  0  0  0  0  0  0
   -1.1273   -6.9258    0.0000 C   0  0  0  0  0  0  0  0  0  0  0  0
   -2.4787   -6.2750    0.0000 C   0  0  0  0  0  0  0  0  0  0  0  0
   -2.5908   -4.7792    0.0000 C   0  0  0  0  0  0  0  0  0  0  0  0
   -4.0307   -4.3423    0.0000 N   0  0  0  0  0  0  0  0  0  0  0  0
   -4.2543   -2.8590    0.0000 C   0  0  0  0  0  0  0  0  0  0  0  0
   -5.6506   -2.3110    0.0000 O   0  0  0  0  0  0  0  0  0  0  0  0
   -5.8742   -0.8278    0.0000 C   0  0  0  0  0  0  0  0  0  0  0  0
   -7.2705   -0.2797    0.0000 C   0  0  0  0  0  0  0  0  0  0  0  0
   -8.5346   -1.0873    0.0000 C   0  0  0  0  0  0  0  0  0  0  0  0
   -9.6932   -0.1346    0.0000 C   0  0  0  0  0  0  0  0  0  0  0  0
   -9.1452    1.2617    0.0000 C   0  0  0  0  0  0  0  0  0  0  0  0
   -7.6479    1.1720    0.0000 N   0  0  0  0  0  0  0  0  0  0  0  0
   -6.6952    2.3306    0.0000 C   0  0  0  0  0  0  0  0  0  0  0  0
   -3.0815   -1.9238    0.0000 N   0  0  0  0  0  0  0  0  0  0  0  0
   -1.6852   -2.4718    0.0000 C   0  0  0  0  0  0  0  0  0  0  0  0
   -1.3515   -3.9342    0.0000 C   0  0  0  0  0  0  0  0  0  0  0  0
   -0.0000   -4.5850    0.0000 C   0  0  0  0  0  0  0  0  0  0  0  0
    0.1121   -6.0808    0.0000 C   0  0  0  0  0  0  0  0  0  0  0  0
    1.4635   -6.7316    0.0000 Cl  0  0  0  0  0  0  0  0  0  0  0  0
    1.3515   -3.9342    0.0000 O   0  0  0  0  0  0  0  0  0  0  0  0
    1.6852   -2.4718    0.0000 C   0  0  0  0  0  0  0  0  0  0  0  0
    0.7500   -1.2990    0.0000 C   0  0  0  0  0  0  0  0  0  0  0  0
    1.5000    0.0000    0.0000 C   0  0  0  0  0  0  0  0  0  0  0  0
    0.7500    1.2990    0.0000 N   0  0  0  0  0  0  0  0  0  0  0  0
    1.5000    2.5981    0.0000 C   0  0  0  0  0  0  0  0  0  0  0  0
    0.7500    3.8971    0.0000 O   0  0  0  0  0  0  0  0  0  0  0  0
    3.0000    2.5981    0.0000 C   0  0  0  0  0  0  0  0  0  0  0  0
    3.2605    1.1209    0.0000 N   0  0  0  0  0  0  0  0  0  0  0  0
    4.4095    3.1111    0.0000 C   0  0  0  0  0  0  0  0  0  0  0  0
    3.2605    4.0753    0.0000 C   0  0  0  0  0  0  0  0  0  0  0  0
   -0.7500    1.2990    0.0000 C   0  0  0  0  0  0  0  0  0  0  0  0
   -1.5000    0.0000    0.0000 C   0  0  0  0  0  0  0  0  0  0  0  0
   -0.7500   -1.2990    0.0000 N   0  0  0  0  0  0  0  0  0  0  0  0
   -2.2545   -9.2666    0.0000 C   0  0  0  0  0  0  0  0  0  0  0  0
   -3.6060   -8.6157    0.0000 C   0  0  0  0  0  0  0  0  0  0  0  0
   -4.9574   -7.9649    0.0000 F   0  0  0  0  0  0  0  0  0  0  0  0
   -2.9552   -7.2643    0.0000 F   0  0  0  0  0  0  0  0  0  0  0  0
   -4.2568   -9.9672    0.0000 F   0  0  0  0  0  0  0  0  0  0  0  0
  1  2  1  0
  2  3  2  0
  3  4  1  0
  4  5  1  0
  4  6  2  0
  6  7  1  0
  7  8  1  0
  8  9  2  0
  9 10  1  0
 10 11  2  0
 11 12  1  0
 12 13  1  0
 13 14  1  0
 15 14  1  6
 15 16  1  0
 16 17  1  0
 17 18  1  0
 18 19  1  0
 19 20  1  0
 12 21  2  0
 21 22  1  0
 22 23  2  0
 23 24  1  0
 24 25  2  0
 25 26  1  0
 24 27  1  0
 27 28  1  0
 29 28  1  1
 29 30  1  0
 30 31  1  0
 31 32  1  0
 32 33  2  0
 32 34  1  0
 34 35  1  0
 34 36  1  0
 36 37  1  0
 31 38  1  0
 38 39  1  0
 39 40  1  0
  7 41  2  0
 41 42  1  0
 42 43  1  0
 42 44  1  0
 42 45  1  0
 41  2  1  0
 25  8  1  0
 40 29  1  0
 23 10  1  0
 37 34  1  0
 19 15  1  0
 40 22  1  0
M  END
>  <molecule_chembl_id>  (179) 
CHEMBL5407974

>  <canonical_smiles>  (179) 
Cc1cc(N)nc(-c2cc3nc(OC[C@@H]4CCCN4C)nc4c3c(c2Cl)OC[C@@H]2CN(C(=O)C3(N)CC3)CCN42)c1C(F)(F)F

>  <pchembl_value_mean>  (179) 
6.26

>  <inchi>  (179) 
InChI=1S/C30H34ClF3N8O3/c1-15-10-20(35)38-24(22(15)30(32,33)34)18-11-19-21-25(23(18)31)44-14-17-12-41(27(43)29(36)5-6-29)8-9-42(17)26(21)39-28(37-19)45-13-16-4-3-7-40(16)2/h10-11,16-17H,3-9,12-14,36H2,1-2H3,(H2,35,38)/t16-,17-/m0/s1

$$$$

     RDKit          2D

151160  0  0  0  0  0  0  0  0999 V2000
   15.4792   -0.1915    0.0000 C   0  0  0  0  0  0  0  0  0  0  0  0
   13.9792   -0.1915    0.0000 C   0  0  0  0  0  0  0  0  0  0  0  0
   13.8112   -1.6821    0.0000 N   0  0  0  0  0  0  0  0  0  0  0  0
   13.3158   -3.0979    0.0000 C   0  0  0  0  0  0  0  0  0  0  0  0
   14.6672   -3.7487    0.0000 O   0  0  0  0  0  0  0  0  0  0  0  0
   12.5177   -4.3680    0.0000 C   0  0  0  0  0  0  0  0  0  0  0  0
   13.6905   -5.3032    0.0000 C   0  0  0  0  0  0  0  0  0  0  0  0
   13.4669   -6.7865    0.0000 C   0  0  0  0  0  0  0  0  0  0  0  0
   12.0706   -7.3345    0.0000 C   0  0  0  0  0  0  0  0  0  0  0  0
   11.8471   -8.8177    0.0000 C   0  0  0  0  0  0  0  0  0  0  0  0
   13.0198   -9.7530    0.0000 C   0  0  0  0  0  0  0  0  0  0  0  0
   14.4161   -9.2050    0.0000 C   0  0  0  0  0  0  0  0  0  0  0  0
   14.6397   -7.7217    0.0000 C   0  0  0  0  0  0  0  0  0  0  0  0
   11.4571   -5.4287    0.0000 N   0  0  0  0  0  0  0  0  0  0  0  0
   10.1870   -6.2267    0.0000 C   0  0  0  0  0  0  0  0  0  0  0  0
   10.8378   -7.5782    0.0000 O   0  0  0  0  0  0  0  0  0  0  0  0
    8.7712   -6.7221    0.0000 C   0  0  0  0  0  0  0  0  0  0  0  0
    7.2806   -6.8901    0.0000 C   0  0  0  0  0  0  0  0  0  0  0  0
    5.7900   -6.7221    0.0000 C   0  0  0  0  0  0  0  0  0  0  0  0
    4.3742   -6.2267    0.0000 C   0  0  0  0  0  0  0  0  0  0  0  0
    3.1041   -5.4287    0.0000 C   0  0  0  0  0  0  0  0  0  0  0  0
    2.0435   -4.3680    0.0000 N   0  0  0  0  0  0  0  0  0  0  0  0
    1.2454   -3.0979    0.0000 C   0  0  0  0  0  0  0  0  0  0  0  0
   -0.1060   -3.7487    0.0000 O   0  0  0  0  0  0  0  0  0  0  0  0
    0.7500   -1.2990    0.0000 C   0  0  0  0  0  0  0  0  0  0  0  0
    1.5000    0.0000    0.0000 C   0  0  0  0  0  0  0  0  0  0  0  0
    0.7500    1.2990    0.0000 C   0  0  0  0  0  0  0  0  0  0  0  0
   -0.7500    1.2990    0.0000 C   0  0  0  0  0  0  0  0  0  0  0  0
   -1.5000    0.0000    0.0000 C   0  0  0  0  0  0  0  0  0  0  0  0
   -0.7500   -1.2990    0.0000 C   0  0  0  0  0  0  0  0  0  0  0  0
   -2.3002   -1.3623    0.0000 C   0  0  0  0  0  0  0  0  0  0  0  0
   -3.7181    0.3198    0.0000 O   0  0  0  0  0  0  0  0  0  0  0  0
   -3.2158   -2.3372    0.0000 N   0  0  0  0  0  0  0  0  0  0  0  0
   -3.8819   -3.4970    0.0000 C   0  0  0  0  0  0  0  0  0  0  0  0
   -5.9040   -2.6302    0.0000 C   0  0  0  0  0  0  0  0  0  0  0  0
   -6.0815   -1.1408    0.0000 C   0  0  0  0  0  0  0  0  0  0  0  0
   -4.8803   -0.2423    0.0000 C   0  0  0  0  0  0  0  0  0  0  0  0
   -5.0578    1.2471    0.0000 C   0  0  0  0  0  0  0  0  0  0  0  0
   -6.4365    1.8381    0.0000 C   0  0  0  0  0  0  0  0  0  0  0  0
   -6.6140    3.3276    0.0000 C   0  0  0  0  0  0  0  0  0  0  0  0
   -7.9927    3.9186    0.0000 C   0  0  0  0  0  0  0  0  0  0  0  0
   -9.1939    3.0201    0.0000 C   0  0  0  0  0  0  0  0  0  0  0  0
   -9.0163    1.5307    0.0000 C   0  0  0  0  0  0  0  0  0  0  0  0
   -7.6377    0.9397    0.0000 C   0  0  0  0  0  0  0  0  0  0  0  0
   -7.4602   -0.5498    0.0000 C   0  0  0  0  0  0  0  0  0  0  0  0
   -4.2626   -4.7792    0.0000 C   0  0  0  0  0  0  0  0  0  0  0  0
   -6.4300   -4.4021    0.0000 O   0  0  0  0  0  0  0  0  0  0  0  0
   -4.3373   -6.1146    0.0000 N   0  0  0  0  0  0  0  0  0  0  0  0
   -4.1021   -7.4312    0.0000 C   0  0  0  0  0  0  0  0  0  0  0  0
   -6.2082   -8.0669    0.0000 C   0  0  0  0  0  0  0  0  0  0  0  0
   -7.3016   -7.0400    0.0000 O   0  0  0  0  0  0  0  0  0  0  0  0
   -3.5696   -8.6581    0.0000 C   0  0  0  0  0  0  0  0  0  0  0  0
   -5.4723   -9.7624    0.0000 O   0  0  0  0  0  0  0  0  0  0  0  0
   -2.7685   -9.7291    0.0000 N   0  0  0  0  0  0  0  0  0  0  0  0
   -1.7420  -10.5864    0.0000 C   0  0  0  0  0  0  0  0  0  0  0  0
   -2.9467  -12.4273    0.0000 C   0  0  0  0  0  0  0  0  0  0  0  0
   -4.4444  -12.3434    0.0000 C   0  0  0  0  0  0  0  0  0  0  0  0
   -5.2658  -13.5985    0.0000 N   0  0  0  0  0  0  0  0  0  0  0  0
   -5.1206  -11.0045    0.0000 O   0  0  0  0  0  0  0  0  0  0  0  0
   -0.5454  -11.1840    0.0000 C   0  0  0  0  0  0  0  0  0  0  0  0
   -1.2931  -13.2530    0.0000 O   0  0  0  0  0  0  0  0  0  0  0  0
    0.7567  -11.4895    0.0000 N   0  0  0  0  0  0  0  0  0  0  0  0
    2.0942  -11.4864    0.0000 C   0  0  0  0  0  0  0  0  0  0  0  0
    2.3546  -13.6710    0.0000 C   0  0  0  0  0  0  0  0  0  0  0  0
    1.1534  -14.5694    0.0000 C   0  0  0  0  0  0  0  0  0  0  0  0
   -0.2253  -13.9785    0.0000 C   0  0  0  0  0  0  0  0  0  0  0  0
   -1.4264  -14.8769    0.0000 C   0  0  0  0  0  0  0  0  0  0  0  0
   -1.2489  -16.3664    0.0000 C   0  0  0  0  0  0  0  0  0  0  0  0
   -2.4501  -17.2648    0.0000 C   0  0  0  0  0  0  0  0  0  0  0  0
   -2.2725  -18.7543    0.0000 C   0  0  0  0  0  0  0  0  0  0  0  0
   -0.8939  -19.3453    0.0000 C   0  0  0  0  0  0  0  0  0  0  0  0
    0.3073  -18.4468    0.0000 C   0  0  0  0  0  0  0  0  0  0  0  0
    0.1298  -16.9574    0.0000 C   0  0  0  0  0  0  0  0  0  0  0  0
    1.3309  -16.0589    0.0000 C   0  0  0  0  0  0  0  0  0  0  0  0
    3.3949  -11.1751    0.0000 C   0  0  0  0  0  0  0  0  0  0  0  0
    4.1520  -13.2407    0.0000 O   0  0  0  0  0  0  0  0  0  0  0  0
    4.5887  -10.5721    0.0000 N   0  0  0  0  0  0  0  0  0  0  0  0
    5.6114   -9.7101    0.0000 C   0  0  0  0  0  0  0  0  0  0  0  0
    7.2150  -11.2162    0.0000 C   0  0  0  0  0  0  0  0  0  0  0  0
    6.8724  -12.6765    0.0000 C   0  0  0  0  0  0  0  0  0  0  0  0
    7.9658  -13.7034    0.0000 C   0  0  0  0  0  0  0  0  0  0  0  0
    9.4018  -13.2699    0.0000 C   0  0  0  0  0  0  0  0  0  0  0  0
    9.7444  -11.8096    0.0000 C   0  0  0  0  0  0  0  0  0  0  0  0
    8.6510  -10.7827    0.0000 C   0  0  0  0  0  0  0  0  0  0  0  0
    6.4076   -8.6354    0.0000 C   0  0  0  0  0  0  0  0  0  0  0  0
    8.3154   -9.7311    0.0000 O   0  0  0  0  0  0  0  0  0  0  0  0
    8.1358   -8.0625    0.0000 N   0  0  0  0  0  0  0  0  0  0  0  0
    1.2454    2.7149    0.0000 C   0  0  0  0  0  0  0  0  0  0  0  0
   -0.1060    3.3657    0.0000 O   0  0  0  0  0  0  0  0  0  0  0  0
    2.0435    3.9849    0.0000 N   0  0  0  0  0  0  0  0  0  0  0  0
    3.1041    5.0456    0.0000 C   0  0  0  0  0  0  0  0  0  0  0  0
    4.3742    5.8437    0.0000 C   0  0  0  0  0  0  0  0  0  0  0  0
    3.7234    7.1951    0.0000 C   0  0  0  0  0  0  0  0  0  0  0  0
    2.2276    7.3072    0.0000 O   0  0  0  0  0  0  0  0  0  0  0  0
    4.5684    8.4345    0.0000 N   0  0  0  0  0  0  0  0  0  0  0  0
    3.9175    9.7859    0.0000 C   0  0  0  0  0  0  0  0  0  0  0  0
    4.7625   11.0253    0.0000 C   0  0  0  0  0  0  0  0  0  0  0  0
    4.1117   12.3767    0.0000 C   0  0  0  0  0  0  0  0  0  0  0  0
    4.9567   13.6161    0.0000 N   0  0  0  0  0  0  0  0  0  0  0  0
    2.4217    9.8980    0.0000 C   0  0  0  0  0  0  0  0  0  0  0  0
    1.7709   11.2495    0.0000 C   0  0  0  0  0  0  0  0  0  0  0  0
    2.6159   12.4888    0.0000 O   0  0  0  0  0  0  0  0  0  0  0  0
    0.2751   11.3616    0.0000 N   0  0  0  0  0  0  0  0  0  0  0  0
   -0.3757   12.7130    0.0000 C   0  0  0  0  0  0  0  0  0  0  0  0
   -1.8715   12.8251    0.0000 C   0  0  0  0  0  0  0  0  0  0  0  0
   -2.5224   14.1766    0.0000 C   0  0  0  0  0  0  0  0  0  0  0  0
   -4.0182   14.2887    0.0000 C   0  0  0  0  0  0  0  0  0  0  0  0
   -4.6690   15.6401    0.0000 N   0  0  0  0  0  0  0  0  0  0  0  0
   -6.1648   15.7522    0.0000 C   0  0  0  0  0  0  0  0  0  0  0  0
   -7.0098   14.5129    0.0000 N   0  0  0  0  0  0  0  0  0  0  0  0
   -6.8156   17.1037    0.0000 N   0  0  0  0  0  0  0  0  0  0  0  0
    0.4693   13.9524    0.0000 C   0  0  0  0  0  0  0  0  0  0  0  0
    1.9651   13.8403    0.0000 O   0  0  0  0  0  0  0  0  0  0  0  0
   -0.1816   15.3038    0.0000 N   0  0  0  0  0  0  0  0  0  0  0  0
    0.6634   16.5432    0.0000 C   0  0  0  0  0  0  0  0  0  0  0  0
    0.0126   17.8946    0.0000 C   0  0  0  0  0  0  0  0  0  0  0  0
    0.8576   19.1340    0.0000 C   0  0  0  0  0  0  0  0  0  0  0  0
    2.3534   19.0219    0.0000 C   0  0  0  0  0  0  0  0  0  0  0  0
    3.1984   20.2613    0.0000 C   0  0  0  0  0  0  0  0  0  0  0  0
    2.5475   21.6127    0.0000 C   0  0  0  0  0  0  0  0  0  0  0  0
    3.3925   22.8521    0.0000 F   0  0  0  0  0  0  0  0  0  0  0  0
    1.0517   21.7248    0.0000 C   0  0  0  0  0  0  0  0  0  0  0  0
    0.2067   20.4855    0.0000 C   0  0  0  0  0  0  0  0  0  0  0  0
    2.1592   16.4311    0.0000 C   0  0  0  0  0  0  0  0  0  0  0  0
    3.0042   17.6705    0.0000 N   0  0  0  0  0  0  0  0  0  0  0  0
    2.8100   15.0796    0.0000 O   0  0  0  0  0  0  0  0  0  0  0  0
    5.7900    6.3391    0.0000 N   0  0  0  0  0  0  0  0  0  0  0  0
    7.2806    6.5070    0.0000 C   0  0  0  0  0  0  0  0  0  0  0  0
    7.2806    8.0070    0.0000 O   0  0  0  0  0  0  0  0  0  0  0  0
    8.7712    6.3391    0.0000 C   0  0  0  0  0  0  0  0  0  0  0  0
    9.1050    7.8015    0.0000 C   0  0  0  0  0  0  0  0  0  0  0  0
   10.5383    8.2436    0.0000 C   0  0  0  0  0  0  0  0  0  0  0  0
   10.8721    9.7060    0.0000 C   0  0  0  0  0  0  0  0  0  0  0  0
   12.3055   10.1481    0.0000 N   0  0  0  0  0  0  0  0  0  0  0  0
   12.6392   11.6105    0.0000 C   0  0  0  0  0  0  0  0  0  0  0  0
   11.5397   12.6308    0.0000 N   0  0  0  0  0  0  0  0  0  0  0  0
   14.0726   12.0527    0.0000 N   0  0  0  0  0  0  0  0  0  0  0  0
   10.1870    5.8437    0.0000 N   0  0  0  0  0  0  0  0  0  0  0  0
   11.4571    5.0456    0.0000 C   0  0  0  0  0  0  0  0  0  0  0  0
   12.3923    6.2184    0.0000 O   0  0  0  0  0  0  0  0  0  0  0  0
   12.5177    3.9849    0.0000 C   0  0  0  0  0  0  0  0  0  0  0  0
   13.6905    4.9202    0.0000 C   0  0  0  0  0  0  0  0  0  0  0  0
   15.0868    4.3722    0.0000 C   0  0  0  0  0  0  0  0  0  0  0  0
   16.2596    5.3074    0.0000 C   0  0  0  0  0  0  0  0  0  0  0  0
   17.6559    4.7594    0.0000 N   0  0  0  0  0  0  0  0  0  0  0  0
   18.8286    5.6946    0.0000 C   0  0  0  0  0  0  0  0  0  0  0  0
   18.6050    7.1779    0.0000 N   0  0  0  0  0  0  0  0  0  0  0  0
   20.2249    5.1466    0.0000 N   0  0  0  0  0  0  0  0  0  0  0  0
   13.3158    2.7149    0.0000 N   0  0  0  0  0  0  0  0  0  0  0  0
   13.8112    1.2990    0.0000 C   0  0  0  0  0  0  0  0  0  0  0  0
   15.2736    1.6328    0.0000 O   0  0  0  0  0  0  0  0  0  0  0  0
  2  1  1  6
  2  3  1  0
  3  4  1  0
  4  5  2  0
  4  6  1  0
  6  7  1  1
  7  8  1  0
  8  9  2  0
  9 10  1  0
 10 11  2  0
 11 12  1  0
 12 13  2  0
  6 14  1  0
 14 15  1  0
 15 16  2  0
 15 17  1  0
 17 18  1  0
 18 19  1  0
 19 20  1  0
 20 21  1  0
 21 22  1  0
 22 23  1  0
 23 24  2  0
 23 25  1  0
 25 26  1  0
 26 27  2  0
 27 28  1  0
 28 29  2  0
 29 30  1  0
 29 31  1  0
 31 32  2  0
 31 33  1  0
 33 34  1  0
 34 35  1  1
 35 36  1  0
 36 37  2  0
 37 38  1  0
 38 39  2  0
 39 40  1  0
 40 41  2  0
 41 42  1  0
 42 43  2  0
 43 44  1  0
 44 45  2  0
 34 46  1  0
 46 47  2  0
 46 48  1  0
 48 49  1  0
 49 50  1  6
 50 51  1  0
 49 52  1  0
 52 53  2  0
 52 54  1  0
 54 55  1  0
 55 56  1  6
 56 57  1  0
 57 58  1  0
 57 59  2  0
 55 60  1  0
 60 61  2  0
 60 62  1  0
 62 63  1  0
 63 64  1  1
 64 65  1  0
 65 66  2  0
 66 67  1  0
 67 68  2  0
 68 69  1  0
 69 70  2  0
 70 71  1  0
 71 72  2  0
 72 73  1  0
 73 74  2  0
 63 75  1  0
 75 76  2  0
 75 77  1  0
 77 78  1  0
 78 79  1  6
 79 80  2  0
 80 81  1  0
 81 82  2  0
 82 83  1  0
 83 84  2  0
 78 85  1  0
 85 86  2  0
 85 87  1  0
 27 88  1  0
 88 89  2  0
 88 90  1  0
 90 91  1  0
 91 92  1  0
 92 93  1  1
 93 94  2  0
 93 95  1  0
 95 96  1  0
 96 97  1  6
 97 98  1  0
 98 99  1  0
 96100  1  0
100101  1  0
101102  2  0
101103  1  0
103104  1  0
104105  1  6
105106  1  0
106107  1  0
107108  1  0
108109  1  0
109110  2  0
109111  1  0
104112  1  0
112113  2  0
112114  1  0
114115  1  0
115116  1  1
116117  1  0
117118  2  0
118119  1  0
119120  2  0
120121  1  0
120122  1  0
122123  2  0
115124  1  0
124125  1  0
124126  2  0
 92127  1  0
127128  1  0
128129  2  0
128130  1  0
130131  1  6
131132  1  0
132133  1  0
133134  1  0
134135  1  0
135136  2  0
135137  1  0
130138  1  0
138139  1  0
139140  2  0
139141  1  0
141142  1  1
142143  1  0
143144  1  0
144145  1  0
145146  1  0
146147  2  0
146148  1  0
141149  1  0
149150  1  0
150151  2  0
150  2  1  0
 13  8  1  0
 17 87  1  1
123117  1  0
 30 25  2  0
 45 36  1  0
 74 65  1  0
 84 79  1  0
 44 39  1  0
 73 68  1  0
M  END
>  <molecule_chembl_id>  (180) 
CHEMBL4870843

>  <canonical_smiles>  (180) 
C[C@@H]1NC(=O)[C@@H](Cc2ccccc2)NC(=O)[C@@H]2CCCCNC(=O)c3cc(cc(c3)C(=O)N[C@H](Cc3ccc4ccccc4c3)C(=O)N[C@@H](CO)C(=O)N[C@@H](CC(N)=O)C(=O)N[C@H](Cc3ccc4ccccc4c3)C(=O)N[C@@H](c3ccccc3)C(=O)N2)C(=O)NC[C@@H](C(=O)N[C@@H](CCN)CC(=O)N[C@H](CCCNC(=N)N)C(=O)N[C@@H](Cc2ccc(F)cc2)C(N)=O)NC(=O)[C@H](CCCNC(=N)N)NC(=O)[C@@H](CCCNC(=N)N)NC1=O

>  <pchembl_value_mean>  (180) 
6.26

>  <inchi>  (180) 
InChI=1S/C103H129FN28O19/c1-56-86(137)122-73(27-15-41-116-102(110)111)91(142)123-74(28-16-42-117-103(112)113)93(144)130-80(98(149)120-70(37-38-105)52-83(135)121-71(26-14-40-115-101(108)109)90(141)125-75(85(107)136)45-58-31-35-69(104)36-32-58)54-118-88(139)67-49-66-50-68(51-67)89(140)126-77(47-59-29-33-61-19-8-10-23-64(61)43-59)95(146)131-81(55-133)99(150)129-79(53-82(106)134)96(147)128-78(48-60-30-34-62-20-9-11-24-65(62)44-60)97(148)132-84(63-21-6-3-7-22-63)100(151)124-72(25-12-13-39-114-87(66)138)92(143)127-76(94(145)119-56)46-57-17-4-2-5-18-57/h2-11,17-24,29-36,43-44,49-51,56,70-81,84,133H,12-16,25-28,37-42,45-48,52-55,105H2,1H3,(H2,106,134)(H2,107,136)(H,114,138)(H,118,139)(H,119,145)(H,120,149)(H,121,135)(H,122,137)(H,123,142)(H,124,151)(H,125,141)(H,126,140)(H,127,143)(H,128,147)(H,129,150)(H,130,144)(H,131,146)(H,132,148)(H4,108,109,115)(H4,110,111,116)(H4,112,113,117)/t56-,70-,71+,72-,73+,74-,75-,76+,77+,78+,79-,80-,81-,84-/m0/s1

$$$$

     RDKit          2D

 38 44  0  0  0  0  0  0  0  0999 V2000
   -0.5773   -6.8783    0.0000 C   0  0  0  0  0  0  0  0  0  0  0  0
    0.8899   -6.5665    0.0000 N   0  0  0  0  0  0  0  0  0  0  0  0
    2.0046   -7.5702    0.0000 C   0  0  0  0  0  0  0  0  0  0  0  0
    3.3037   -6.8202    0.0000 C   0  0  0  0  0  0  0  0  0  0  0  0
    2.9918   -5.3529    0.0000 C   0  0  0  0  0  0  0  0  0  0  0  0
    1.5000   -5.1962    0.0000 C   0  0  0  0  0  0  0  0  0  0  0  0
    0.7500   -3.8971    0.0000 C   0  0  0  0  0  0  0  0  0  0  0  0
    1.5000   -2.5981    0.0000 O   0  0  0  0  0  0  0  0  0  0  0  0
    0.7500   -1.2990    0.0000 C   0  0  0  0  0  0  0  0  0  0  0  0
    1.5000    0.0000    0.0000 N   0  0  0  0  0  0  0  0  0  0  0  0
    0.7500    1.2990    0.0000 C   0  0  0  0  0  0  0  0  0  0  0  0
    1.5000    2.5981    0.0000 N   0  0  0  0  0  0  0  0  0  0  0  0
    3.0000    2.5981    0.0000 C   0  0  0  0  0  0  0  0  0  0  0  0
    3.7500    3.8971    0.0000 C   0  0  0  0  0  0  0  0  0  0  0  0
    4.0619    5.3643    0.0000 C   0  0  0  0  0  0  0  0  0  0  0  0
    2.7628    6.1143    0.0000 C   0  0  0  0  0  0  0  0  0  0  0  0
    1.6481    5.1106    0.0000 C   0  0  0  0  0  0  0  0  0  0  0  0
    0.7500    3.8971    0.0000 C   0  0  0  0  0  0  0  0  0  0  0  0
    2.2582    3.7403    0.0000 N   0  0  0  0  0  0  0  0  0  0  0  0
   -0.7500    1.2990    0.0000 C   0  0  0  0  0  0  0  0  0  0  0  0
   -1.5000    2.5981    0.0000 C   0  0  0  0  0  0  0  0  0  0  0  0
   -3.0000    2.5981    0.0000 N   0  0  0  0  0  0  0  0  0  0  0  0
   -3.7500    1.2990    0.0000 C   0  0  0  0  0  0  0  0  0  0  0  0
   -5.2500    1.2990    0.0000 C   0  0  0  0  0  0  0  0  0  0  0  0
   -6.0000   -0.0000    0.0000 C   0  0  0  0  0  0  0  0  0  0  0  0
   -7.5000   -0.0000    0.0000 C   0  0  0  0  0  0  0  0  0  0  0  0
   -8.2500   -1.2990    0.0000 O   0  0  0  0  0  0  0  0  0  0  0  0
   -8.2500    1.2990    0.0000 C   0  0  0  0  0  0  0  0  0  0  0  0
   -7.5000    2.5981    0.0000 C   0  0  0  0  0  0  0  0  0  0  0  0
   -8.2500    3.8971    0.0000 C   0  0  0  0  0  0  0  0  0  0  0  0
   -7.5000    5.1962    0.0000 C   0  0  0  0  0  0  0  0  0  0  0  0
   -6.0000    5.1962    0.0000 C   0  0  0  0  0  0  0  0  0  0  0  0
   -5.2500    3.8971    0.0000 C   0  0  0  0  0  0  0  0  0  0  0  0
   -6.0000    2.5981    0.0000 C   0  0  0  0  0  0  0  0  0  0  0  0
   -3.0000    0.0000    0.0000 C   0  0  0  0  0  0  0  0  0  0  0  0
   -3.7500   -1.2990    0.0000 F   0  0  0  0  0  0  0  0  0  0  0  0
   -1.5000    0.0000    0.0000 C   0  0  0  0  0  0  0  0  0  0  0  0
   -0.7500   -1.2990    0.0000 N   0  0  0  0  0  0  0  0  0  0  0  0
  1  2  1  0
  2  3  1  0
  3  4  1  0
  4  5  1  0
  5  6  1  0
  6  7  1  6
  7  8  1  0
  8  9  1  0
  9 10  2  0
 10 11  1  0
 11 12  1  0
 12 13  1  0
 14 13  1  6
 14 15  1  0
 15 16  1  0
 17 16  1  6
 17 18  1  0
 17 19  1  0
 11 20  2  0
 20 21  1  0
 21 22  2  0
 22 23  1  0
 23 24  1  0
 24 25  2  0
 25 26  1  0
 26 27  1  0
 26 28  2  0
 28 29  1  0
 29 30  2  0
 30 31  1  0
 31 32  2  0
 32 33  1  0
 33 34  2  0
 23 35  2  0
 35 36  1  0
 35 37  1  0
 37 38  2  0
  6  2  1  0
 38  9  1  0
 18 12  1  0
 37 20  1  0
 19 14  1  0
 34 24  1  0
 34 29  1  0
M  END
>  <molecule_chembl_id>  (181) 
CHEMBL5080840

>  <canonical_smiles>  (181) 
CN1CCC[C@H]1COc1nc(N2C[C@H]3CC[C@@H](C2)N3)c2cnc(-c3cc(O)cc4ccccc34)c(F)c2n1

>  <pchembl_value_mean>  (181) 
6.28

>  <inchi>  (181) 
InChI=1S/C29H31FN6O2/c1-35-10-4-6-20(35)16-38-29-33-27-24(28(34-29)36-14-18-8-9-19(15-36)32-18)13-31-26(25(27)30)23-12-21(37)11-17-5-2-3-7-22(17)23/h2-3,5,7,11-13,18-20,32,37H,4,6,8-10,14-16H2,1H3/t18-,19+,20-/m0/s1

$$$$

     RDKit          2D

155164  0  0  0  0  0  0  0  0999 V2000
   10.7457  -10.5769    0.0000 C   0  0  0  0  0  0  0  0  0  0  0  0
    9.2499  -10.6890    0.0000 C   0  0  0  0  0  0  0  0  0  0  0  0
    8.5991  -12.0404    0.0000 N   0  0  0  0  0  0  0  0  0  0  0  0
    7.1033  -12.1525    0.0000 C   0  0  0  0  0  0  0  0  0  0  0  0
    6.2583  -10.9132    0.0000 O   0  0  0  0  0  0  0  0  0  0  0  0
    6.4525  -13.5040    0.0000 C   0  0  0  0  0  0  0  0  0  0  0  0
    7.2975  -14.7434    0.0000 C   0  0  0  0  0  0  0  0  0  0  0  0
    8.7933  -14.6313    0.0000 C   0  0  0  0  0  0  0  0  0  0  0  0
    9.6382  -15.8706    0.0000 C   0  0  0  0  0  0  0  0  0  0  0  0
   11.1341  -15.7585    0.0000 C   0  0  0  0  0  0  0  0  0  0  0  0
   11.7849  -14.4071    0.0000 C   0  0  0  0  0  0  0  0  0  0  0  0
   10.9399  -13.1677    0.0000 C   0  0  0  0  0  0  0  0  0  0  0  0
    9.4441  -13.2798    0.0000 C   0  0  0  0  0  0  0  0  0  0  0  0
    4.9567  -13.6161    0.0000 N   0  0  0  0  0  0  0  0  0  0  0  0
    4.1117  -12.3767    0.0000 C   0  0  0  0  0  0  0  0  0  0  0  0
    4.7625  -11.0253    0.0000 O   0  0  0  0  0  0  0  0  0  0  0  0
    2.6159  -12.4888    0.0000 C   0  0  0  0  0  0  0  0  0  0  0  0
    1.9651  -13.8403    0.0000 C   0  0  0  0  0  0  0  0  0  0  0  0
    2.8100  -15.0796    0.0000 C   0  0  0  0  0  0  0  0  0  0  0  0
    2.1592  -16.4311    0.0000 C   0  0  0  0  0  0  0  0  0  0  0  0
    3.0042  -17.6705    0.0000 N   0  0  0  0  0  0  0  0  0  0  0  0
    2.3534  -19.0219    0.0000 C   0  0  0  0  0  0  0  0  0  0  0  0
    0.8576  -19.1340    0.0000 N   0  0  0  0  0  0  0  0  0  0  0  0
    3.1984  -20.2613    0.0000 N   0  0  0  0  0  0  0  0  0  0  0  0
    1.7709  -11.2495    0.0000 N   0  0  0  0  0  0  0  0  0  0  0  0
    2.4217   -9.8980    0.0000 C   0  0  0  0  0  0  0  0  0  0  0  0
    3.9175   -9.7859    0.0000 O   0  0  0  0  0  0  0  0  0  0  0  0
    1.5768   -8.6587    0.0000 C   0  0  0  0  0  0  0  0  0  0  0  0
    0.0810   -8.7708    0.0000 C   0  0  0  0  0  0  0  0  0  0  0  0
   -0.5699  -10.1222    0.0000 C   0  0  0  0  0  0  0  0  0  0  0  0
   -2.0657  -10.2343    0.0000 C   0  0  0  0  0  0  0  0  0  0  0  0
   -2.7165  -11.5858    0.0000 N   0  0  0  0  0  0  0  0  0  0  0  0
    2.2276   -7.3072    0.0000 N   0  0  0  0  0  0  0  0  0  0  0  0
    3.7234   -7.1951    0.0000 C   0  0  0  0  0  0  0  0  0  0  0  0
    4.5684   -8.4345    0.0000 O   0  0  0  0  0  0  0  0  0  0  0  0
    4.3742   -5.8437    0.0000 C   0  0  0  0  0  0  0  0  0  0  0  0
    3.1041   -5.0456    0.0000 C   0  0  0  0  0  0  0  0  0  0  0  0
    2.0435   -3.9849    0.0000 N   0  0  0  0  0  0  0  0  0  0  0  0
    1.2454   -2.7149    0.0000 C   0  0  0  0  0  0  0  0  0  0  0  0
   -0.1060   -3.3657    0.0000 O   0  0  0  0  0  0  0  0  0  0  0  0
    0.7500   -1.2990    0.0000 C   0  0  0  0  0  0  0  0  0  0  0  0
    1.5000    0.0000    0.0000 C   0  0  0  0  0  0  0  0  0  0  0  0
    0.7500    1.2990    0.0000 C   0  0  0  0  0  0  0  0  0  0  0  0
   -0.7500    1.2990    0.0000 C   0  0  0  0  0  0  0  0  0  0  0  0
   -1.5000    0.0000    0.0000 C   0  0  0  0  0  0  0  0  0  0  0  0
   -0.7500   -1.2990    0.0000 C   0  0  0  0  0  0  0  0  0  0  0  0
   -2.7514    0.8271    0.0000 C   0  0  0  0  0  0  0  0  0  0  0  0
   -3.7181   -0.3198    0.0000 O   0  0  0  0  0  0  0  0  0  0  0  0
   -3.7782    1.9205    0.0000 N   0  0  0  0  0  0  0  0  0  0  0  0
   -4.5253    3.2212    0.0000 C   0  0  0  0  0  0  0  0  0  0  0  0
   -5.9040    2.6302    0.0000 C   0  0  0  0  0  0  0  0  0  0  0  0
   -6.0815    1.1408    0.0000 C   0  0  0  0  0  0  0  0  0  0  0  0
   -4.8803    0.2423    0.0000 C   0  0  0  0  0  0  0  0  0  0  0  0
   -5.0578   -1.2471    0.0000 C   0  0  0  0  0  0  0  0  0  0  0  0
   -6.4365   -1.8381    0.0000 C   0  0  0  0  0  0  0  0  0  0  0  0
   -6.6140   -3.3276    0.0000 C   0  0  0  0  0  0  0  0  0  0  0  0
   -7.9927   -3.9186    0.0000 C   0  0  0  0  0  0  0  0  0  0  0  0
   -9.1939   -3.0201    0.0000 C   0  0  0  0  0  0  0  0  0  0  0  0
   -9.0163   -1.5307    0.0000 C   0  0  0  0  0  0  0  0  0  0  0  0
   -7.6377   -0.9397    0.0000 C   0  0  0  0  0  0  0  0  0  0  0  0
   -7.4602    0.5498    0.0000 C   0  0  0  0  0  0  0  0  0  0  0  0
   -4.9522    4.6592    0.0000 C   0  0  0  0  0  0  0  0  0  0  0  0
   -6.4300    4.4021    0.0000 O   0  0  0  0  0  0  0  0  0  0  0  0
   -5.0361    6.1568    0.0000 N   0  0  0  0  0  0  0  0  0  0  0  0
   -4.7722    7.6335    0.0000 C   0  0  0  0  0  0  0  0  0  0  0  0
   -6.2082    8.0669    0.0000 C   0  0  0  0  0  0  0  0  0  0  0  0
   -6.5509    9.5273    0.0000 O   0  0  0  0  0  0  0  0  0  0  0  0
   -4.1750    9.0094    0.0000 C   0  0  0  0  0  0  0  0  0  0  0  0
   -5.4723    9.7624    0.0000 O   0  0  0  0  0  0  0  0  0  0  0  0
   -3.2765   10.2106    0.0000 N   0  0  0  0  0  0  0  0  0  0  0  0
   -2.1253   11.1722    0.0000 C   0  0  0  0  0  0  0  0  0  0  0  0
   -2.9467   12.4273    0.0000 C   0  0  0  0  0  0  0  0  0  0  0  0
   -4.4444   12.3434    0.0000 C   0  0  0  0  0  0  0  0  0  0  0  0
   -5.2658   13.5985    0.0000 N   0  0  0  0  0  0  0  0  0  0  0  0
   -5.1206   11.0045    0.0000 O   0  0  0  0  0  0  0  0  0  0  0  0
   -0.7833   11.8423    0.0000 C   0  0  0  0  0  0  0  0  0  0  0  0
   -1.2931   13.2530    0.0000 O   0  0  0  0  0  0  0  0  0  0  0  0
    0.6770   12.1849    0.0000 N   0  0  0  0  0  0  0  0  0  0  0  0
    2.1770   12.1815    0.0000 C   0  0  0  0  0  0  0  0  0  0  0  0
    2.3546   13.6710    0.0000 C   0  0  0  0  0  0  0  0  0  0  0  0
    1.1534   14.5694    0.0000 C   0  0  0  0  0  0  0  0  0  0  0  0
   -0.2253   13.9785    0.0000 C   0  0  0  0  0  0  0  0  0  0  0  0
   -1.4264   14.8769    0.0000 C   0  0  0  0  0  0  0  0  0  0  0  0
   -1.2489   16.3664    0.0000 C   0  0  0  0  0  0  0  0  0  0  0  0
   -2.4501   17.2648    0.0000 C   0  0  0  0  0  0  0  0  0  0  0  0
   -2.2725   18.7543    0.0000 C   0  0  0  0  0  0  0  0  0  0  0  0
   -0.8939   19.3453    0.0000 C   0  0  0  0  0  0  0  0  0  0  0  0
    0.3073   18.4468    0.0000 C   0  0  0  0  0  0  0  0  0  0  0  0
    0.1298   16.9574    0.0000 C   0  0  0  0  0  0  0  0  0  0  0  0
    1.3309   16.0589    0.0000 C   0  0  0  0  0  0  0  0  0  0  0  0
    3.6358   11.8323    0.0000 C   0  0  0  0  0  0  0  0  0  0  0  0
    4.1520   13.2407    0.0000 O   0  0  0  0  0  0  0  0  0  0  0  0
    4.9747   11.1561    0.0000 N   0  0  0  0  0  0  0  0  0  0  0  0
    6.1216   10.1893    0.0000 C   0  0  0  0  0  0  0  0  0  0  0  0
    7.2150   11.2162    0.0000 C   0  0  0  0  0  0  0  0  0  0  0  0
    8.6510   10.7827    0.0000 C   0  0  0  0  0  0  0  0  0  0  0  0
    9.7444   11.8096    0.0000 C   0  0  0  0  0  0  0  0  0  0  0  0
    9.4018   13.2699    0.0000 C   0  0  0  0  0  0  0  0  0  0  0  0
    7.9658   13.7034    0.0000 C   0  0  0  0  0  0  0  0  0  0  0  0
    6.8724   12.6765    0.0000 C   0  0  0  0  0  0  0  0  0  0  0  0
    7.0146    8.9841    0.0000 C   0  0  0  0  0  0  0  0  0  0  0  0
    8.3154    9.7311    0.0000 O   0  0  0  0  0  0  0  0  0  0  0  0
    7.6056    7.6054    0.0000 N   0  0  0  0  0  0  0  0  0  0  0  0
    8.7712    6.7221    0.0000 C   0  0  0  0  0  0  0  0  0  0  0  0
    7.2806    6.1901    0.0000 C   0  0  0  0  0  0  0  0  0  0  0  0
    5.9458    6.0397    0.0000 C   0  0  0  0  0  0  0  0  0  0  0  0
    4.6779    5.5960    0.0000 C   0  0  0  0  0  0  0  0  0  0  0  0
    3.5406    4.8814    0.0000 C   0  0  0  0  0  0  0  0  0  0  0  0
    2.5907    3.9316    0.0000 N   0  0  0  0  0  0  0  0  0  0  0  0
    1.5931    2.4904    0.0000 C   0  0  0  0  0  0  0  0  0  0  0  0
   -0.1060    3.7487    0.0000 O   0  0  0  0  0  0  0  0  0  0  0  0
   10.1870    6.2267    0.0000 C   0  0  0  0  0  0  0  0  0  0  0  0
   10.8378    7.5782    0.0000 O   0  0  0  0  0  0  0  0  0  0  0  0
   11.4571    5.4287    0.0000 N   0  0  0  0  0  0  0  0  0  0  0  0
   12.5177    4.3680    0.0000 C   0  0  0  0  0  0  0  0  0  0  0  0
   13.6905    5.3032    0.0000 C   0  0  0  0  0  0  0  0  0  0  0  0
   15.0868    4.7552    0.0000 C   0  0  0  0  0  0  0  0  0  0  0  0
   15.3104    3.2720    0.0000 C   0  0  0  0  0  0  0  0  0  0  0  0
   16.7067    2.7240    0.0000 C   0  0  0  0  0  0  0  0  0  0  0  0
   17.8794    3.6592    0.0000 C   0  0  0  0  0  0  0  0  0  0  0  0
   17.6559    5.1425    0.0000 C   0  0  0  0  0  0  0  0  0  0  0  0
   16.2596    5.6905    0.0000 C   0  0  0  0  0  0  0  0  0  0  0  0
   13.3158    3.0979    0.0000 C   0  0  0  0  0  0  0  0  0  0  0  0
   14.6672    3.7487    0.0000 O   0  0  0  0  0  0  0  0  0  0  0  0
   13.8112    1.6821    0.0000 N   0  0  0  0  0  0  0  0  0  0  0  0
   13.9792    0.1915    0.0000 C   0  0  0  0  0  0  0  0  0  0  0  0
   15.4792    0.1915    0.0000 C   0  0  0  0  0  0  0  0  0  0  0  0
   13.8112   -1.2990    0.0000 C   0  0  0  0  0  0  0  0  0  0  0  0
   15.2736   -1.6328    0.0000 O   0  0  0  0  0  0  0  0  0  0  0  0
   13.3158   -2.7149    0.0000 N   0  0  0  0  0  0  0  0  0  0  0  0
   12.5177   -3.9849    0.0000 C   0  0  0  0  0  0  0  0  0  0  0  0
   13.6905   -4.9202    0.0000 C   0  0  0  0  0  0  0  0  0  0  0  0
   13.4669   -6.4034    0.0000 C   0  0  0  0  0  0  0  0  0  0  0  0
   14.6397   -7.3387    0.0000 C   0  0  0  0  0  0  0  0  0  0  0  0
   14.4161   -8.8219    0.0000 N   0  0  0  0  0  0  0  0  0  0  0  0
   15.5889   -9.7571    0.0000 C   0  0  0  0  0  0  0  0  0  0  0  0
   16.9852   -9.2091    0.0000 N   0  0  0  0  0  0  0  0  0  0  0  0
   15.3653  -11.2404    0.0000 N   0  0  0  0  0  0  0  0  0  0  0  0
   11.4571   -5.0456    0.0000 C   0  0  0  0  0  0  0  0  0  0  0  0
   12.3923   -6.2184    0.0000 O   0  0  0  0  0  0  0  0  0  0  0  0
   10.1870   -5.8437    0.0000 N   0  0  0  0  0  0  0  0  0  0  0  0
    8.7712   -6.3391    0.0000 C   0  0  0  0  0  0  0  0  0  0  0  0
    9.1050   -7.8015    0.0000 C   0  0  0  0  0  0  0  0  0  0  0  0
    8.0054   -8.8217    0.0000 C   0  0  0  0  0  0  0  0  0  0  0  0
    8.3392  -10.2841    0.0000 C   0  0  0  0  0  0  0  0  0  0  0  0
    7.2396  -11.3044    0.0000 N   0  0  0  0  0  0  0  0  0  0  0  0
    7.5734  -12.7668    0.0000 C   0  0  0  0  0  0  0  0  0  0  0  0
    8.3693  -12.8104    0.0000 N   0  0  0  0  0  0  0  0  0  0  0  0
    6.7533  -14.0228    0.0000 N   0  0  0  0  0  0  0  0  0  0  0  0
    7.2806   -6.5070    0.0000 C   0  0  0  0  0  0  0  0  0  0  0  0
    7.2806   -8.0070    0.0000 O   0  0  0  0  0  0  0  0  0  0  0  0
    5.7900   -6.3391    0.0000 N   0  0  0  0  0  0  0  0  0  0  0  0
    8.4050   -9.4496    0.0000 C   0  0  0  0  0  0  0  0  0  0  0  0
    9.3635   -8.2958    0.0000 N   0  0  0  0  0  0  0  0  0  0  0  0
    6.9092   -9.5617    0.0000 O   0  0  0  0  0  0  0  0  0  0  0  0
  2  1  1  1
  2  3  1  0
  3  4  1  0
  4  5  2  0
  4  6  1  0
  6  7  1  6
  7  8  1  0
  8  9  2  0
  9 10  1  0
 10 11  2  0
 11 12  1  0
 12 13  2  0
  6 14  1  0
 14 15  1  0
 15 16  2  0
 15 17  1  0
 17 18  1  1
 18 19  1  0
 19 20  1  0
 20 21  1  0
 21 22  1  0
 22 23  2  0
 22 24  1  0
 17 25  1  0
 25 26  1  0
 26 27  2  0
 26 28  1  0
 28 29  1  6
 29 30  1  0
 30 31  1  0
 31 32  1  0
 28 33  1  0
 33 34  1  0
 34 35  2  0
 36 34  1  6
 36 37  1  0
 37 38  1  0
 38 39  1  0
 39 40  2  0
 39 41  1  0
 41 42  2  0
 42 43  1  0
 43 44  2  0
 44 45  1  0
 45 46  2  0
 45 47  1  0
 47 48  2  0
 47 49  1  0
 49 50  1  0
 50 51  1  6
 51 52  1  0
 52 53  2  0
 53 54  1  0
 54 55  2  0
 55 56  1  0
 56 57  2  0
 57 58  1  0
 58 59  2  0
 59 60  1  0
 60 61  2  0
 50 62  1  0
 62 63  2  0
 62 64  1  0
 64 65  1  0
 65 66  1  1
 66 67  1  0
 65 68  1  0
 68 69  2  0
 68 70  1  0
 70 71  1  0
 71 72  1  1
 72 73  1  0
 73 74  1  0
 73 75  2  0
 71 76  1  0
 76 77  2  0
 76 78  1  0
 78 79  1  0
 79 80  1  6
 80 81  1  0
 81 82  2  0
 82 83  1  0
 83 84  2  0
 84 85  1  0
 85 86  2  0
 86 87  1  0
 87 88  2  0
 88 89  1  0
 89 90  2  0
 79 91  1  0
 91 92  2  0
 91 93  1  0
 93 94  1  0
 94 95  1  1
 95 96  2  0
 96 97  1  0
 97 98  2  0
 98 99  1  0
 99100  2  0
 94101  1  0
101102  2  0
101103  1  0
104103  1  6
104105  1  0
105106  1  0
106107  1  0
107108  1  0
108109  1  0
109110  1  0
110111  2  0
104112  1  0
112113  2  0
112114  1  0
114115  1  0
115116  1  1
116117  1  0
117118  2  0
118119  1  0
119120  2  0
120121  1  0
121122  2  0
115123  1  0
123124  2  0
123125  1  0
125126  1  0
126127  1  6
126128  1  0
128129  2  0
128130  1  0
130131  1  0
131132  1  6
132133  1  0
133134  1  0
134135  1  0
135136  1  0
136137  2  0
136138  1  0
131139  1  0
139140  2  0
139141  1  0
141142  1  0
142143  1  1
143144  1  0
144145  1  0
145146  1  0
146147  1  0
147148  2  0
147149  1  0
142150  1  0
150151  2  0
150152  1  0
  2153  1  0
153154  1  0
153155  2  0
 13  8  1  0
152 36  1  0
 46 41  1  0
 61 52  1  0
 90 81  1  0
100 95  1  0
122117  1  0
110 43  1  0
 60 55  1  0
 89 84  1  0
M  END
>  <molecule_chembl_id>  (182) 
CHEMBL4869131

>  <canonical_smiles>  (182) 
C[C@@H](NC(=O)[C@H](Cc1ccccc1)NC(=O)[C@@H](CCCNC(=N)N)NC(=O)[C@H](CCCN)NC(=O)[C@@H]1CNC(=O)c2cc3cc(c2)C(=O)N[C@H](Cc2ccc4ccccc4c2)C(=O)N[C@@H](CO)C(=O)N[C@@H](CC(N)=O)C(=O)N[C@H](Cc2ccc4ccccc4c2)C(=O)N[C@@H](c2ccccc2)C(=O)N[C@@H](CCCCNC3=O)C(=O)N[C@@H](Cc2ccccc2)C(=O)N[C@H](C)C(=O)N[C@H](CCCNC(=N)N)C(=O)N[C@@H](CCCNC(=N)N)C(=O)N1)C(N)=O

>  <pchembl_value_mean>  (182) 
6.28

>  <inchi>  (182) 
InChI=1S/C106H135N29O20/c1-58(86(109)138)121-96(148)77(48-60-22-6-3-7-23-60)129-94(146)75(35-20-44-118-105(112)113)124-91(143)73(33-18-41-107)126-101(153)82-56-120-89(141)70-52-69-53-71(54-70)90(142)128-79(50-62-37-39-64-26-12-14-30-67(64)46-62)98(150)134-83(57-136)102(154)132-81(55-84(108)137)99(151)131-80(51-63-38-40-65-27-13-15-31-68(65)47-63)100(152)135-85(66-28-10-5-11-29-66)103(155)127-72(32-16-17-42-116-88(69)140)93(145)130-78(49-61-24-8-4-9-25-61)97(149)122-59(2)87(139)123-74(34-19-43-117-104(110)111)92(144)125-76(95(147)133-82)36-21-45-119-106(114)115/h3-15,22-31,37-40,46-47,52-54,58-59,72-83,85,136H,16-21,32-36,41-45,48-51,55-57,107H2,1-2H3,(H2,108,137)(H2,109,138)(H,116,140)(H,120,141)(H,121,148)(H,122,149)(H,123,139)(H,124,143)(H,125,144)(H,126,153)(H,127,155)(H,128,142)(H,129,146)(H,130,145)(H,131,151)(H,132,154)(H,133,147)(H,134,150)(H,135,152)(H4,110,111,117)(H4,112,113,118)(H4,114,115,119)/t58-,59-,72+,73+,74-,75-,76+,77+,78+,79-,80-,81+,82+,83+,85+/m1/s1

$$$$

     RDKit          2D

 55 61  0  0  0  0  0  0  0  0999 V2000
    5.1731   -3.9415    0.0000 C   0  0  0  0  0  0  0  0  0  0  0  0
    3.8740   -4.6915    0.0000 C   0  0  0  0  0  0  0  0  0  0  0  0
    3.7172   -6.1833    0.0000 C   0  0  0  0  0  0  0  0  0  0  0  0
    2.2500   -6.4952    0.0000 N   0  0  0  0  0  0  0  0  0  0  0  0
    1.2463   -7.6099    0.0000 C   0  0  0  0  0  0  0  0  0  0  0  0
   -0.1240   -6.9998    0.0000 C   0  0  0  0  0  0  0  0  0  0  0  0
    0.0328   -5.5080    0.0000 C   0  0  0  0  0  0  0  0  0  0  0  0
    1.5000   -5.1962    0.0000 C   0  0  0  0  0  0  0  0  0  0  0  0
    0.7500   -3.8971    0.0000 C   0  0  0  0  0  0  0  0  0  0  0  0
    1.5000   -2.5981    0.0000 O   0  0  0  0  0  0  0  0  0  0  0  0
    0.7500   -1.2990    0.0000 C   0  0  0  0  0  0  0  0  0  0  0  0
    1.5000    0.0000    0.0000 N   0  0  0  0  0  0  0  0  0  0  0  0
    0.7500    1.2990    0.0000 C   0  0  0  0  0  0  0  0  0  0  0  0
    1.5000    2.5981    0.0000 N   0  0  0  0  0  0  0  0  0  0  0  0
    3.0000    2.5981    0.0000 C   0  0  0  0  0  0  0  0  0  0  0  0
    3.7500    3.8971    0.0000 C   0  0  0  0  0  0  0  0  0  0  0  0
    3.0000    5.1962    0.0000 N   0  0  0  0  0  0  0  0  0  0  0  0
    3.7500    6.4952    0.0000 C   0  0  0  0  0  0  0  0  0  0  0  0
    3.0000    7.7942    0.0000 O   0  0  0  0  0  0  0  0  0  0  0  0
    5.2500    6.4952    0.0000 C   0  0  0  0  0  0  0  0  0  0  0  0
    6.0000    7.7942    0.0000 C   0  0  0  0  0  0  0  0  0  0  0  0
    7.5000    7.7942    0.0000 C   0  0  0  0  0  0  0  0  0  0  0  0
    8.2500    6.4952    0.0000 C   0  0  0  0  0  0  0  0  0  0  0  0
    9.7500    6.4952    0.0000 C   0  0  0  0  0  0  0  0  0  0  0  0
   10.5000    5.1962    0.0000 C   0  0  0  0  0  0  0  0  0  0  0  0
    9.7500    3.8971    0.0000 N   0  0  0  0  0  0  0  0  0  0  0  0
   10.5000    2.5981    0.0000 C   0  0  0  0  0  0  0  0  0  0  0  0
   10.5000    7.7942    0.0000 C   0  0  0  0  0  0  0  0  0  0  0  0
    9.7500    9.0933    0.0000 C   0  0  0  0  0  0  0  0  0  0  0  0
    8.2500    9.0933    0.0000 N   0  0  0  0  0  0  0  0  0  0  0  0
    1.5000    5.1962    0.0000 C   0  0  0  0  0  0  0  0  0  0  0  0
    0.7500    3.8971    0.0000 C   0  0  0  0  0  0  0  0  0  0  0  0
   -0.7500    3.8971    0.0000 C   0  0  0  0  0  0  0  0  0  0  0  0
   -0.7500    1.2990    0.0000 C   0  0  0  0  0  0  0  0  0  0  0  0
   -1.5000    2.5981    0.0000 C   0  0  0  0  0  0  0  0  0  0  0  0
   -3.0000    2.5981    0.0000 C   0  0  0  0  0  0  0  0  0  0  0  0
   -3.5331    3.3054    0.0000 Cl  0  0  0  0  0  0  0  0  0  0  0  0
   -3.7500    1.2990    0.0000 C   0  0  0  0  0  0  0  0  0  0  0  0
   -5.2500    1.2990    0.0000 C   0  0  0  0  0  0  0  0  0  0  0  0
   -6.0000    0.0000    0.0000 N   0  0  0  0  0  0  0  0  0  0  0  0
   -7.5000    0.0000    0.0000 C   0  0  0  0  0  0  0  0  0  0  0  0
   -8.2500   -1.2990    0.0000 N   0  0  0  0  0  0  0  0  0  0  0  0
   -8.2500    1.2990    0.0000 C   0  0  0  0  0  0  0  0  0  0  0  0
   -7.5000    2.5981    0.0000 C   0  0  0  0  0  0  0  0  0  0  0  0
   -8.2500    3.8971    0.0000 C   0  0  0  0  0  0  0  0  0  0  0  0
   -6.0000    2.5981    0.0000 C   0  0  0  0  0  0  0  0  0  0  0  0
   -5.2500    3.8971    0.0000 C   0  0  0  0  0  0  0  0  0  0  0  0
   -4.5000    5.1962    0.0000 F   0  0  0  0  0  0  0  0  0  0  0  0
   -4.5426    3.3640    0.0000 F   0  0  0  0  0  0  0  0  0  0  0  0
   -6.5490    4.6471    0.0000 F   0  0  0  0  0  0  0  0  0  0  0  0
   -3.0000    0.0000    0.0000 C   0  0  0  0  0  0  0  0  0  0  0  0
   -3.7500   -1.2990    0.0000 F   0  0  0  0  0  0  0  0  0  0  0  0
   -1.5000    0.0000    0.0000 C   0  0  0  0  0  0  0  0  0  0  0  0
   -0.7500   -1.2990    0.0000 N   0  0  0  0  0  0  0  0  0  0  0  0
    2.5037   -4.0814    0.0000 C   0  0  0  0  0  0  0  0  0  0  0  0
  1  2  2  0
  2  3  1  0
  3  4  1  0
  4  5  1  0
  5  6  1  0
  6  7  1  0
  7  8  1  0
  8  9  1  6
  9 10  1  0
 10 11  1  0
 11 12  2  0
 12 13  1  0
 13 14  1  0
 14 15  1  0
 15 16  1  0
 16 17  1  0
 17 18  1  0
 18 19  2  0
 18 20  1  0
 20 21  2  0
 21 22  1  0
 22 23  2  0
 23 24  1  0
 24 25  1  0
 25 26  1  0
 26 27  1  0
 24 28  2  0
 28 29  1  0
 29 30  2  0
 17 31  1  0
 31 32  1  0
 32 33  1  1
 13 34  2  0
 34 35  1  0
 35 36  2  0
 36 37  1  0
 36 38  1  0
 38 39  1  0
 39 40  2  0
 40 41  1  0
 41 42  1  0
 41 43  2  0
 43 44  1  0
 44 45  1  0
 44 46  2  0
 46 47  1  0
 47 48  1  0
 47 49  1  0
 47 50  1  0
 38 51  2  0
 51 52  1  0
 51 53  1  0
 53 54  2  0
  8 55  1  0
 55  2  1  0
  8  4  1  0
 54 11  1  0
 32 14  1  0
 53 34  1  0
 30 22  1  0
 46 39  1  0
M  END
>  <molecule_chembl_id>  (183) 
CHEMBL5397857

>  <canonical_smiles>  (183) 
C=C1CN2CCC[C@@]2(COc2nc(N3CCN(C(=O)/C=C/c4cc(CNC)ccn4)C[C@@H]3C)c3cc(Cl)c(-c4nc(N)cc(C)c4C(F)(F)F)c(F)c3n2)C1

>  <pchembl_value_mean>  (183) 
6.28

>  <inchi>  (183) 
InChI=1S/C39H42ClF4N9O2/c1-22-17-38(9-5-11-52(38)19-22)21-55-37-49-34-27(16-28(40)31(33(34)41)35-32(39(42,43)44)23(2)14-29(45)48-35)36(50-37)53-13-12-51(20-24(53)3)30(54)7-6-26-15-25(18-46-4)8-10-47-26/h6-8,10,14-16,24,46H,1,5,9,11-13,17-21H2,2-4H3,(H2,45,48)/b7-6+/t24-,38-/m0/s1

$$$$

     RDKit          2D

 57 63  0  0  0  0  0  0  0  0999 V2000
    5.1731   -3.9415    0.0000 C   0  0  0  0  0  0  0  0  0  0  0  0
    3.8740   -4.6915    0.0000 C   0  0  0  0  0  0  0  0  0  0  0  0
    3.7172   -6.1833    0.0000 C   0  0  0  0  0  0  0  0  0  0  0  0
    2.2500   -6.4952    0.0000 N   0  0  0  0  0  0  0  0  0  0  0  0
    1.2463   -7.6099    0.0000 C   0  0  0  0  0  0  0  0  0  0  0  0
   -0.1240   -6.9998    0.0000 C   0  0  0  0  0  0  0  0  0  0  0  0
    0.0328   -5.5080    0.0000 C   0  0  0  0  0  0  0  0  0  0  0  0
    1.5000   -5.1962    0.0000 C   0  0  0  0  0  0  0  0  0  0  0  0
    0.7500   -3.8971    0.0000 C   0  0  0  0  0  0  0  0  0  0  0  0
    1.5000   -2.5981    0.0000 O   0  0  0  0  0  0  0  0  0  0  0  0
    0.7500   -1.2990    0.0000 C   0  0  0  0  0  0  0  0  0  0  0  0
    1.5000    0.0000    0.0000 N   0  0  0  0  0  0  0  0  0  0  0  0
    0.7500    1.2990    0.0000 C   0  0  0  0  0  0  0  0  0  0  0  0
    1.5000    2.5981    0.0000 N   0  0  0  0  0  0  0  0  0  0  0  0
    3.0000    2.5981    0.0000 C   0  0  0  0  0  0  0  0  0  0  0  0
    3.7500    3.8971    0.0000 C   0  0  0  0  0  0  0  0  0  0  0  0
    3.0000    5.1962    0.0000 N   0  0  0  0  0  0  0  0  0  0  0  0
    3.7500    6.4952    0.0000 C   0  0  0  0  0  0  0  0  0  0  0  0
    3.0000    7.7942    0.0000 O   0  0  0  0  0  0  0  0  0  0  0  0
    5.2500    6.4952    0.0000 C   0  0  0  0  0  0  0  0  0  0  0  0
    6.0000    7.7942    0.0000 C   0  0  0  0  0  0  0  0  0  0  0  0
    7.5000    7.7942    0.0000 C   0  0  0  0  0  0  0  0  0  0  0  0
    8.2500    6.4952    0.0000 C   0  0  0  0  0  0  0  0  0  0  0  0
    9.7500    6.4952    0.0000 C   0  0  0  0  0  0  0  0  0  0  0  0
   10.5000    5.1962    0.0000 C   0  0  0  0  0  0  0  0  0  0  0  0
    9.7500    3.8971    0.0000 N   0  0  0  0  0  0  0  0  0  0  0  0
   10.5000    2.5981    0.0000 C   0  0  0  0  0  0  0  0  0  0  0  0
    8.2500    3.8971    0.0000 C   0  0  0  0  0  0  0  0  0  0  0  0
   10.5000    7.7942    0.0000 C   0  0  0  0  0  0  0  0  0  0  0  0
   12.0000    7.7942    0.0000 C   0  0  0  0  0  0  0  0  0  0  0  0
    9.7500    9.0933    0.0000 C   0  0  0  0  0  0  0  0  0  0  0  0
    8.2500    9.0933    0.0000 N   0  0  0  0  0  0  0  0  0  0  0  0
    1.5000    5.1962    0.0000 C   0  0  0  0  0  0  0  0  0  0  0  0
    0.7500    3.8971    0.0000 C   0  0  0  0  0  0  0  0  0  0  0  0
   -0.7500    3.8971    0.0000 C   0  0  0  0  0  0  0  0  0  0  0  0
   -0.7500    1.2990    0.0000 C   0  0  0  0  0  0  0  0  0  0  0  0
   -1.5000    2.5981    0.0000 C   0  0  0  0  0  0  0  0  0  0  0  0
   -3.0000    2.5981    0.0000 C   0  0  0  0  0  0  0  0  0  0  0  0
   -3.5331    3.3054    0.0000 Cl  0  0  0  0  0  0  0  0  0  0  0  0
   -3.7500    1.2990    0.0000 C   0  0  0  0  0  0  0  0  0  0  0  0
   -5.2500    1.2990    0.0000 C   0  0  0  0  0  0  0  0  0  0  0  0
   -6.0000    0.0000    0.0000 N   0  0  0  0  0  0  0  0  0  0  0  0
   -7.5000    0.0000    0.0000 C   0  0  0  0  0  0  0  0  0  0  0  0
   -8.2500   -1.2990    0.0000 N   0  0  0  0  0  0  0  0  0  0  0  0
   -8.2500    1.2990    0.0000 C   0  0  0  0  0  0  0  0  0  0  0  0
   -7.5000    2.5981    0.0000 C   0  0  0  0  0  0  0  0  0  0  0  0
   -8.2500    3.8971    0.0000 C   0  0  0  0  0  0  0  0  0  0  0  0
   -6.0000    2.5981    0.0000 C   0  0  0  0  0  0  0  0  0  0  0  0
   -5.2500    3.8971    0.0000 C   0  0  0  0  0  0  0  0  0  0  0  0
   -4.5000    5.1962    0.0000 F   0  0  0  0  0  0  0  0  0  0  0  0
   -4.5426    3.3640    0.0000 F   0  0  0  0  0  0  0  0  0  0  0  0
   -6.5490    4.6471    0.0000 F   0  0  0  0  0  0  0  0  0  0  0  0
   -3.0000    0.0000    0.0000 C   0  0  0  0  0  0  0  0  0  0  0  0
   -3.7500   -1.2990    0.0000 F   0  0  0  0  0  0  0  0  0  0  0  0
   -1.5000    0.0000    0.0000 C   0  0  0  0  0  0  0  0  0  0  0  0
   -0.7500   -1.2990    0.0000 N   0  0  0  0  0  0  0  0  0  0  0  0
    2.5037   -4.0814    0.0000 C   0  0  0  0  0  0  0  0  0  0  0  0
  1  2  2  0
  2  3  1  0
  3  4  1  0
  4  5  1  0
  5  6  1  0
  6  7  1  0
  7  8  1  0
  8  9  1  6
  9 10  1  0
 10 11  1  0
 11 12  2  0
 12 13  1  0
 13 14  1  0
 14 15  1  0
 15 16  1  0
 16 17  1  0
 17 18  1  0
 18 19  2  0
 18 20  1  0
 20 21  2  0
 21 22  1  0
 22 23  2  0
 23 24  1  0
 24 25  1  0
 25 26  1  0
 26 27  1  0
 26 28  1  0
 24 29  2  0
 29 30  1  0
 29 31  1  0
 31 32  2  0
 17 33  1  0
 33 34  1  0
 34 35  1  1
 13 36  2  0
 36 37  1  0
 37 38  2  0
 38 39  1  0
 38 40  1  0
 40 41  1  0
 41 42  2  0
 42 43  1  0
 43 44  1  0
 43 45  2  0
 45 46  1  0
 46 47  1  0
 46 48  2  0
 48 49  1  0
 49 50  1  0
 49 51  1  0
 49 52  1  0
 40 53  2  0
 53 54  1  0
 53 55  1  0
 55 56  2  0
  8 57  1  0
 57  2  1  0
  8  4  1  0
 56 11  1  0
 34 14  1  0
 55 36  1  0
 32 22  1  0
 48 41  1  0
M  END
>  <molecule_chembl_id>  (184) 
CHEMBL5428469

>  <canonical_smiles>  (184) 
C=C1CN2CCC[C@@]2(COc2nc(N3CCN(C(=O)/C=C/c4cc(CN(C)C)c(C)cn4)C[C@@H]3C)c3cc(Cl)c(-c4nc(N)cc(C)c4C(F)(F)F)c(F)c3n2)C1

>  <pchembl_value_mean>  (184) 
6.28

>  <inchi>  (184) 
InChI=1S/C41H46ClF4N9O2/c1-23-17-40(10-7-11-54(40)19-23)22-57-39-50-36-29(16-30(42)33(35(36)43)37-34(41(44,45)46)24(2)14-31(47)49-37)38(51-39)55-13-12-53(20-26(55)4)32(56)9-8-28-15-27(21-52(5)6)25(3)18-48-28/h8-9,14-16,18,26H,1,7,10-13,17,19-22H2,2-6H3,(H2,47,49)/b9-8+/t26-,40-/m0/s1

$$$$

     RDKit          2D

 33 38  0  0  0  0  0  0  0  0999 V2000
  -12.1677   -7.0526    0.0000 C   0  0  0  0  0  0  0  0  0  0  0  0
  -11.2860   -5.8390    0.0000 C   0  0  0  0  0  0  0  0  0  0  0  0
   -9.7942   -5.9958    0.0000 C   0  0  0  0  0  0  0  0  0  0  0  0
   -9.1841   -7.3662    0.0000 O   0  0  0  0  0  0  0  0  0  0  0  0
   -8.9126   -4.7823    0.0000 N   0  0  0  0  0  0  0  0  0  0  0  0
   -9.1472   -3.3008    0.0000 C   0  0  0  0  0  0  0  0  0  0  0  0
   -7.6657   -3.0661    0.0000 C   0  0  0  0  0  0  0  0  0  0  0  0
   -6.1841   -2.8315    0.0000 C   0  0  0  0  0  0  0  0  0  0  0  0
   -6.4188   -1.3499    0.0000 C   0  0  0  0  0  0  0  0  0  0  0  0
   -5.5371   -0.1364    0.0000 N   0  0  0  0  0  0  0  0  0  0  0  0
   -6.0006    1.2902    0.0000 N   0  0  0  0  0  0  0  0  0  0  0  0
   -4.7871    2.1718    0.0000 C   0  0  0  0  0  0  0  0  0  0  0  0
   -4.7871    3.6718    0.0000 C   0  0  0  0  0  0  0  0  0  0  0  0
   -3.4881    4.4218    0.0000 C   0  0  0  0  0  0  0  0  0  0  0  0
   -3.4881    5.9218    0.0000 C   0  0  0  0  0  0  0  0  0  0  0  0
   -4.7871    6.6718    0.0000 C   0  0  0  0  0  0  0  0  0  0  0  0
   -6.0862    5.9218    0.0000 N   0  0  0  0  0  0  0  0  0  0  0  0
   -6.0862    4.4218    0.0000 C   0  0  0  0  0  0  0  0  0  0  0  0
   -3.5736    1.2902    0.0000 C   0  0  0  0  0  0  0  0  0  0  0  0
   -2.1470    1.7537    0.0000 C   0  0  0  0  0  0  0  0  0  0  0  0
   -1.0323    0.7500    0.0000 C   0  0  0  0  0  0  0  0  0  0  0  0
   -1.3442   -0.7172    0.0000 Cl  0  0  0  0  0  0  0  0  0  0  0  0
    0.3943    1.2135    0.0000 C   0  0  0  0  0  0  0  0  0  0  0  0
    0.7062    2.6807    0.0000 C   0  0  0  0  0  0  0  0  0  0  0  0
   -0.4086    3.6844    0.0000 C   0  0  0  0  0  0  0  0  0  0  0  0
   -0.4086    5.1844    0.0000 N   0  0  0  0  0  0  0  0  0  0  0  0
   -1.8351    5.6480    0.0000 N   0  0  0  0  0  0  0  0  0  0  0  0
   -2.7168    4.4344    0.0000 C   0  0  0  0  0  0  0  0  0  0  0  0
   -1.8351    3.2209    0.0000 C   0  0  0  0  0  0  0  0  0  0  0  0
   -4.0371   -0.1364    0.0000 C   0  0  0  0  0  0  0  0  0  0  0  0
   -3.1554   -1.3499    0.0000 C   0  0  0  0  0  0  0  0  0  0  0  0
   -7.9003   -1.5846    0.0000 C   0  0  0  0  0  0  0  0  0  0  0  0
   -7.4310   -4.5477    0.0000 C   0  0  0  0  0  0  0  0  0  0  0  0
  1  2  2  0
  2  3  1  0
  3  4  2  0
  3  5  1  0
  5  6  1  0
  6  7  1  0
  7  8  1  0
  8  9  1  0
  9 10  1  0
 10 11  1  0
 11 12  2  0
 12 13  1  0
 13 14  2  0
 14 15  1  0
 15 16  2  0
 16 17  1  0
 17 18  2  0
 12 19  1  0
 19 20  1  0
 20 21  2  0
 21 22  1  0
 21 23  1  0
 23 24  2  0
 24 25  1  0
 25 26  1  0
 26 27  1  0
 27 28  2  0
 28 29  1  0
 19 30  2  0
 30 31  1  0
  9 32  1  0
  7 33  1  0
 33  5  1  0
 32  7  1  0
 30 10  1  0
 18 13  1  0
 29 20  1  0
 29 25  2  0
M  END
>  <molecule_chembl_id>  (185) 
CHEMBL5290313

>  <canonical_smiles>  (185) 
C=CC(=O)N1CC2(CC(n3nc(-c4cccnc4)c(-c4c(Cl)ccc5[nH]ncc45)c3C)C2)C1

>  <pchembl_value_mean>  (185) 
6.3

>  <inchi>  (185) 
InChI=1S/C25H23ClN6O/c1-3-21(33)31-13-25(14-31)9-17(10-25)32-15(2)22(24(30-32)16-5-4-8-27-11-16)23-18-12-28-29-20(18)7-6-19(23)26/h3-8,11-12,17H,1,9-10,13-14H2,2H3,(H,28,29)

$$$$

     RDKit          2D

 56 62  0  0  0  0  0  0  0  0999 V2000
    5.1731   -3.9415    0.0000 C   0  0  0  0  0  0  0  0  0  0  0  0
    3.8740   -4.6915    0.0000 C   0  0  0  0  0  0  0  0  0  0  0  0
    3.7172   -6.1833    0.0000 C   0  0  0  0  0  0  0  0  0  0  0  0
    2.2500   -6.4952    0.0000 N   0  0  0  0  0  0  0  0  0  0  0  0
    1.2463   -7.6099    0.0000 C   0  0  0  0  0  0  0  0  0  0  0  0
   -0.1240   -6.9998    0.0000 C   0  0  0  0  0  0  0  0  0  0  0  0
    0.0328   -5.5080    0.0000 C   0  0  0  0  0  0  0  0  0  0  0  0
    1.5000   -5.1962    0.0000 C   0  0  0  0  0  0  0  0  0  0  0  0
    0.7500   -3.8971    0.0000 C   0  0  0  0  0  0  0  0  0  0  0  0
    1.5000   -2.5981    0.0000 O   0  0  0  0  0  0  0  0  0  0  0  0
    0.7500   -1.2990    0.0000 C   0  0  0  0  0  0  0  0  0  0  0  0
    1.5000    0.0000    0.0000 N   0  0  0  0  0  0  0  0  0  0  0  0
    0.7500    1.2990    0.0000 C   0  0  0  0  0  0  0  0  0  0  0  0
    1.5000    2.5981    0.0000 N   0  0  0  0  0  0  0  0  0  0  0  0
    3.0000    2.5981    0.0000 C   0  0  0  0  0  0  0  0  0  0  0  0
    3.7500    3.8971    0.0000 C   0  0  0  0  0  0  0  0  0  0  0  0
    3.0000    5.1962    0.0000 N   0  0  0  0  0  0  0  0  0  0  0  0
    3.7500    6.4952    0.0000 C   0  0  0  0  0  0  0  0  0  0  0  0
    3.0000    7.7942    0.0000 O   0  0  0  0  0  0  0  0  0  0  0  0
    5.2500    6.4952    0.0000 C   0  0  0  0  0  0  0  0  0  0  0  0
    6.0000    7.7942    0.0000 C   0  0  0  0  0  0  0  0  0  0  0  0
    7.5000    7.7942    0.0000 C   0  0  0  0  0  0  0  0  0  0  0  0
    8.2500    6.4952    0.0000 C   0  0  0  0  0  0  0  0  0  0  0  0
    9.7500    6.4952    0.0000 C   0  0  0  0  0  0  0  0  0  0  0  0
   10.5000    5.1962    0.0000 C   0  0  0  0  0  0  0  0  0  0  0  0
    9.7500    3.8971    0.0000 N   0  0  0  0  0  0  0  0  0  0  0  0
   10.5000    2.5981    0.0000 C   0  0  0  0  0  0  0  0  0  0  0  0
   10.5000    7.7942    0.0000 C   0  0  0  0  0  0  0  0  0  0  0  0
   12.0000    7.7942    0.0000 C   0  0  0  0  0  0  0  0  0  0  0  0
    9.7500    9.0933    0.0000 C   0  0  0  0  0  0  0  0  0  0  0  0
    8.2500    9.0933    0.0000 N   0  0  0  0  0  0  0  0  0  0  0  0
    1.5000    5.1962    0.0000 C   0  0  0  0  0  0  0  0  0  0  0  0
    0.7500    3.8971    0.0000 C   0  0  0  0  0  0  0  0  0  0  0  0
   -0.7500    3.8971    0.0000 C   0  0  0  0  0  0  0  0  0  0  0  0
   -0.7500    1.2990    0.0000 C   0  0  0  0  0  0  0  0  0  0  0  0
   -1.5000    2.5981    0.0000 C   0  0  0  0  0  0  0  0  0  0  0  0
   -3.0000    2.5981    0.0000 C   0  0  0  0  0  0  0  0  0  0  0  0
   -3.5331    3.3054    0.0000 Cl  0  0  0  0  0  0  0  0  0  0  0  0
   -3.7500    1.2990    0.0000 C   0  0  0  0  0  0  0  0  0  0  0  0
   -5.2500    1.2990    0.0000 C   0  0  0  0  0  0  0  0  0  0  0  0
   -6.0000    0.0000    0.0000 N   0  0  0  0  0  0  0  0  0  0  0  0
   -7.5000    0.0000    0.0000 C   0  0  0  0  0  0  0  0  0  0  0  0
   -8.2500   -1.2990    0.0000 N   0  0  0  0  0  0  0  0  0  0  0  0
   -8.2500    1.2990    0.0000 C   0  0  0  0  0  0  0  0  0  0  0  0
   -7.5000    2.5981    0.0000 C   0  0  0  0  0  0  0  0  0  0  0  0
   -8.2500    3.8971    0.0000 C   0  0  0  0  0  0  0  0  0  0  0  0
   -6.0000    2.5981    0.0000 C   0  0  0  0  0  0  0  0  0  0  0  0
   -5.2500    3.8971    0.0000 C   0  0  0  0  0  0  0  0  0  0  0  0
   -4.5000    5.1962    0.0000 F   0  0  0  0  0  0  0  0  0  0  0  0
   -4.5426    3.3640    0.0000 F   0  0  0  0  0  0  0  0  0  0  0  0
   -6.5490    4.6471    0.0000 F   0  0  0  0  0  0  0  0  0  0  0  0
   -3.0000    0.0000    0.0000 C   0  0  0  0  0  0  0  0  0  0  0  0
   -3.7500   -1.2990    0.0000 F   0  0  0  0  0  0  0  0  0  0  0  0
   -1.5000    0.0000    0.0000 C   0  0  0  0  0  0  0  0  0  0  0  0
   -0.7500   -1.2990    0.0000 N   0  0  0  0  0  0  0  0  0  0  0  0
    2.5037   -4.0814    0.0000 C   0  0  0  0  0  0  0  0  0  0  0  0
  1  2  2  0
  2  3  1  0
  3  4  1  0
  4  5  1  0
  5  6  1  0
  6  7  1  0
  7  8  1  0
  8  9  1  6
  9 10  1  0
 10 11  1  0
 11 12  2  0
 12 13  1  0
 13 14  1  0
 14 15  1  0
 15 16  1  0
 16 17  1  0
 17 18  1  0
 18 19  2  0
 18 20  1  0
 20 21  2  0
 21 22  1  0
 22 23  2  0
 23 24  1  0
 24 25  1  0
 25 26  1  0
 26 27  1  0
 24 28  2  0
 28 29  1  0
 28 30  1  0
 30 31  2  0
 17 32  1  0
 32 33  1  0
 33 34  1  1
 13 35  2  0
 35 36  1  0
 36 37  2  0
 37 38  1  0
 37 39  1  0
 39 40  1  0
 40 41  2  0
 41 42  1  0
 42 43  1  0
 42 44  2  0
 44 45  1  0
 45 46  1  0
 45 47  2  0
 47 48  1  0
 48 49  1  0
 48 50  1  0
 48 51  1  0
 39 52  2  0
 52 53  1  0
 52 54  1  0
 54 55  2  0
  8 56  1  0
 56  2  1  0
  8  4  1  0
 55 11  1  0
 33 14  1  0
 54 35  1  0
 31 22  1  0
 47 40  1  0
M  END
>  <molecule_chembl_id>  (186) 
CHEMBL5437416

>  <canonical_smiles>  (186) 
C=C1CN2CCC[C@@]2(COc2nc(N3CCN(C(=O)/C=C/c4cc(CNC)c(C)cn4)C[C@@H]3C)c3cc(Cl)c(-c4nc(N)cc(C)c4C(F)(F)F)c(F)c3n2)C1

>  <pchembl_value_mean>  (186) 
6.3

>  <inchi>  (186) 
InChI=1S/C40H44ClF4N9O2/c1-22-16-39(9-6-10-53(39)19-22)21-56-38-50-35-28(15-29(41)32(34(35)42)36-33(40(43,44)45)23(2)13-30(46)49-36)37(51-38)54-12-11-52(20-25(54)4)31(55)8-7-27-14-26(18-47-5)24(3)17-48-27/h7-8,13-15,17,25,47H,1,6,9-12,16,18-21H2,2-5H3,(H2,46,49)/b8-7+/t25-,39-/m0/s1

$$$$

     RDKit          2D

 31 35  0  0  0  0  0  0  0  0999 V2000
    3.7500   -9.0933    0.0000 C   0  0  0  0  0  0  0  0  0  0  0  0
    3.0000   -7.7942    0.0000 C   0  0  0  0  0  0  0  0  0  0  0  0
    3.7500   -6.4952    0.0000 C   0  0  0  0  0  0  0  0  0  0  0  0
    5.2500   -6.4952    0.0000 O   0  0  0  0  0  0  0  0  0  0  0  0
    3.0000   -5.1962    0.0000 N   0  0  0  0  0  0  0  0  0  0  0  0
    1.5000   -5.1962    0.0000 C   0  0  0  0  0  0  0  0  0  0  0  0
    0.7500   -3.8971    0.0000 C   0  0  0  0  0  0  0  0  0  0  0  0
    1.5000   -2.5981    0.0000 N   0  0  0  0  0  0  0  0  0  0  0  0
    0.7500   -1.2990    0.0000 C   0  0  0  0  0  0  0  0  0  0  0  0
    1.5000    0.0000    0.0000 N   0  0  0  0  0  0  0  0  0  0  0  0
    0.7500    1.2990    0.0000 C   0  0  0  0  0  0  0  0  0  0  0  0
   -0.7500    1.2990    0.0000 N   0  0  0  0  0  0  0  0  0  0  0  0
   -1.5000    0.0000    0.0000 C   0  0  0  0  0  0  0  0  0  0  0  0
   -3.0000    0.0000    0.0000 C   0  0  0  0  0  0  0  0  0  0  0  0
   -3.7500   -1.2990    0.0000 C   0  0  0  0  0  0  0  0  0  0  0  0
   -5.2500   -1.2990    0.0000 C   0  0  0  0  0  0  0  0  0  0  0  0
   -6.0000    0.0000    0.0000 C   0  0  0  0  0  0  0  0  0  0  0  0
   -5.2500    1.2990    0.0000 C   0  0  0  0  0  0  0  0  0  0  0  0
   -7.5000    0.0000    0.0000 C   0  0  0  0  0  0  0  0  0  0  0  0
   -8.2500   -1.2990    0.0000 C   0  0  0  0  0  0  0  0  0  0  0  0
   -7.5000   -2.5981    0.0000 C   0  0  0  0  0  0  0  0  0  0  0  0
   -7.9635   -4.0247    0.0000 N   0  0  0  0  0  0  0  0  0  0  0  0
   -6.7500   -4.9063    0.0000 N   0  0  0  0  0  0  0  0  0  0  0  0
   -5.5365   -4.0247    0.0000 C   0  0  0  0  0  0  0  0  0  0  0  0
   -6.0000   -2.5981    0.0000 C   0  0  0  0  0  0  0  0  0  0  0  0
   -3.0000   -2.5981    0.0000 C   0  0  0  0  0  0  0  0  0  0  0  0
   -3.7500   -3.8971    0.0000 Cl  0  0  0  0  0  0  0  0  0  0  0  0
   -1.5000   -2.5981    0.0000 C   0  0  0  0  0  0  0  0  0  0  0  0
   -0.7500   -1.2990    0.0000 C   0  0  0  0  0  0  0  0  0  0  0  0
    3.0000   -2.5981    0.0000 C   0  0  0  0  0  0  0  0  0  0  0  0
    3.7500   -3.8971    0.0000 C   0  0  0  0  0  0  0  0  0  0  0  0
  1  2  2  0
  2  3  1  0
  3  4  2  0
  3  5  1  0
  5  6  1  0
  6  7  1  0
  7  8  1  0
  8  9  1  0
  9 10  2  0
 10 11  1  0
 11 12  2  0
 12 13  1  0
 13 14  2  0
 14 15  1  0
 15 16  1  0
 16 17  2  0
 17 18  1  0
 17 19  1  0
 19 20  2  0
 20 21  1  0
 21 22  1  0
 22 23  1  0
 23 24  2  0
 24 25  1  0
 15 26  2  0
 26 27  1  0
 26 28  1  0
 28 29  2  0
  8 30  1  0
 30 31  1  0
 31  5  1  0
 29  9  1  0
 29 13  1  0
 25 16  1  0
 25 21  2  0
M  END
>  <molecule_chembl_id>  (187) 
CHEMBL4536127

>  <canonical_smiles>  (187) 
C=CC(=O)N1CCN(c2ncnc3cc(-c4c(C)ccc5[nH]ncc45)c(Cl)cc23)CC1

>  <pchembl_value_mean>  (187) 
6.3

>  <inchi>  (187) 
InChI=1S/C23H21ClN6O/c1-3-21(31)29-6-8-30(9-7-29)23-16-10-18(24)15(11-20(16)25-13-26-23)22-14(2)4-5-19-17(22)12-27-28-19/h3-5,10-13H,1,6-9H2,2H3,(H,27,28)

$$$$

     RDKit          2D

 38 42  0  0  0  0  0  0  0  0999 V2000
  -13.3978   -7.7062    0.0000 N   0  0  0  0  0  0  0  0  0  0  0  0
  -12.2831   -8.7099    0.0000 C   0  0  0  0  0  0  0  0  0  0  0  0
  -10.8565   -8.2464    0.0000 N   0  0  0  0  0  0  0  0  0  0  0  0
   -9.7418   -9.2501    0.0000 C   0  0  0  0  0  0  0  0  0  0  0  0
  -10.0537  -10.7173    0.0000 C   0  0  0  0  0  0  0  0  0  0  0  0
   -8.7546  -11.4673    0.0000 N   0  0  0  0  0  0  0  0  0  0  0  0
   -7.6399  -10.4636    0.0000 C   0  0  0  0  0  0  0  0  0  0  0  0
   -8.2500   -9.0933    0.0000 N   0  0  0  0  0  0  0  0  0  0  0  0
   -7.5000   -7.7942    0.0000 C   0  0  0  0  0  0  0  0  0  0  0  0
   -6.0000   -7.7942    0.0000 C   0  0  0  0  0  0  0  0  0  0  0  0
   -5.2500   -6.4952    0.0000 N   0  0  0  0  0  0  0  0  0  0  0  0
   -3.7500   -6.4952    0.0000 C   0  0  0  0  0  0  0  0  0  0  0  0
   -3.0000   -5.1962    0.0000 C   0  0  0  0  0  0  0  0  0  0  0  0
   -1.5000   -5.1962    0.0000 O   0  0  0  0  0  0  0  0  0  0  0  0
   -0.7500   -3.8971    0.0000 C   0  0  0  0  0  0  0  0  0  0  0  0
    0.7500   -3.8971    0.0000 C   0  0  0  0  0  0  0  0  0  0  0  0
    1.5000   -2.5981    0.0000 C   0  0  0  0  0  0  0  0  0  0  0  0
    0.7500   -1.2990    0.0000 C   0  0  0  0  0  0  0  0  0  0  0  0
    1.5000    0.0000    0.0000 C   0  0  0  0  0  0  0  0  0  0  0  0
    0.7500    1.2990    0.0000 C   0  0  0  0  0  0  0  0  0  0  0  0
   -0.7500    1.2990    0.0000 C   0  0  0  0  0  0  0  0  0  0  0  0
   -1.5000    0.0000    0.0000 C   0  0  0  0  0  0  0  0  0  0  0  0
   -0.7500   -1.2990    0.0000 C   0  0  0  0  0  0  0  0  0  0  0  0
   -1.5000   -2.5981    0.0000 C   0  0  0  0  0  0  0  0  0  0  0  0
   -6.0000   -5.1962    0.0000 S   0  0  0  0  0  0  0  0  0  0  0  0
   -4.7010   -4.4462    0.0000 O   0  0  0  0  0  0  0  0  0  0  0  0
   -7.2990   -5.9462    0.0000 O   0  0  0  0  0  0  0  0  0  0  0  0
   -6.7500   -3.8971    0.0000 C   0  0  0  0  0  0  0  0  0  0  0  0
   -6.0000   -2.5981    0.0000 C   0  0  0  0  0  0  0  0  0  0  0  0
   -6.7500   -1.2990    0.0000 C   0  0  0  0  0  0  0  0  0  0  0  0
   -8.2500   -1.2990    0.0000 C   0  0  0  0  0  0  0  0  0  0  0  0
   -9.0000    0.0000    0.0000 N   0  0  0  0  0  0  0  0  0  0  0  0
   -8.2500    1.2990    0.0000 O   0  0  0  0  0  0  0  0  0  0  0  0
   -9.0000   -2.5981    0.0000 C   0  0  0  0  0  0  0  0  0  0  0  0
   -8.2500   -3.8971    0.0000 C   0  0  0  0  0  0  0  0  0  0  0  0
  -11.4802  -11.1808    0.0000 C   0  0  0  0  0  0  0  0  0  0  0  0
  -11.7921  -12.6480    0.0000 O   0  0  0  0  0  0  0  0  0  0  0  0
  -12.5950  -10.1771    0.0000 N   0  0  0  0  0  0  0  0  0  0  0  0
  1  2  1  0
  2  3  2  0
  3  4  1  0
  4  5  2  0
  5  6  1  0
  6  7  2  0
  7  8  1  0
  8  9  1  0
  9 10  1  0
 10 11  1  0
 11 12  1  0
 12 13  1  0
 13 14  1  0
 14 15  1  0
 15 16  2  0
 16 17  1  0
 17 18  2  0
 18 19  1  0
 19 20  2  0
 20 21  1  0
 21 22  2  0
 22 23  1  0
 23 24  2  0
 11 25  1  0
 25 26  2  0
 25 27  2  0
 25 28  1  0
 28 29  2  0
 29 30  1  0
 30 31  2  0
 31 32  1  0
 32 33  1  0
 31 34  1  0
 34 35  2  0
  5 36  1  0
 36 37  2  0
 36 38  1  0
 38  2  1  0
  8  4  1  0
 24 15  1  0
 35 28  1  0
 23 18  1  0
M  END
>  <molecule_chembl_id>  (188) 
CHEMBL5176540

>  <canonical_smiles>  (188) 
Nc1nc2c(ncn2CCN(CCOc2ccc3ccccc3c2)S(=O)(=O)c2ccc(NO)cc2)c(=O)[nH]1

>  <pchembl_value_mean>  (188) 
6.3

>  <inchi>  (188) 
InChI=1S/C25H25N7O5S/c26-25-28-23-22(24(33)29-25)27-16-31(23)11-12-32(38(35,36)21-9-6-19(30-34)7-10-21)13-14-37-20-8-5-17-3-1-2-4-18(17)15-20/h1-10,15-16,30,34H,11-14H2,(H3,26,28,29,33)

$$$$

     RDKit          2D

157166  0  0  0  0  0  0  0  0999 V2000
   15.4792   -0.1915    0.0000 C   0  0  0  0  0  0  0  0  0  0  0  0
   13.9792   -0.1915    0.0000 C   0  0  0  0  0  0  0  0  0  0  0  0
   13.8112   -1.6821    0.0000 N   0  0  0  0  0  0  0  0  0  0  0  0
   13.3158   -3.0979    0.0000 C   0  0  0  0  0  0  0  0  0  0  0  0
   14.6672   -3.7487    0.0000 O   0  0  0  0  0  0  0  0  0  0  0  0
   12.5177   -4.3680    0.0000 C   0  0  0  0  0  0  0  0  0  0  0  0
   13.6905   -5.3032    0.0000 C   0  0  0  0  0  0  0  0  0  0  0  0
   13.4669   -6.7865    0.0000 C   0  0  0  0  0  0  0  0  0  0  0  0
   12.0706   -7.3345    0.0000 C   0  0  0  0  0  0  0  0  0  0  0  0
   11.8471   -8.8177    0.0000 C   0  0  0  0  0  0  0  0  0  0  0  0
   13.0198   -9.7530    0.0000 C   0  0  0  0  0  0  0  0  0  0  0  0
   14.4161   -9.2050    0.0000 C   0  0  0  0  0  0  0  0  0  0  0  0
   14.6397   -7.7217    0.0000 C   0  0  0  0  0  0  0  0  0  0  0  0
   11.4571   -5.4287    0.0000 N   0  0  0  0  0  0  0  0  0  0  0  0
   10.1870   -6.2267    0.0000 C   0  0  0  0  0  0  0  0  0  0  0  0
   10.8378   -7.5782    0.0000 O   0  0  0  0  0  0  0  0  0  0  0  0
    8.7712   -6.7221    0.0000 C   0  0  0  0  0  0  0  0  0  0  0  0
    7.2806   -6.8901    0.0000 C   0  0  0  0  0  0  0  0  0  0  0  0
    5.7900   -6.7221    0.0000 C   0  0  0  0  0  0  0  0  0  0  0  0
    4.3742   -6.2267    0.0000 C   0  0  0  0  0  0  0  0  0  0  0  0
    3.1041   -5.4287    0.0000 C   0  0  0  0  0  0  0  0  0  0  0  0
    2.0435   -4.3680    0.0000 N   0  0  0  0  0  0  0  0  0  0  0  0
    1.2454   -3.0979    0.0000 C   0  0  0  0  0  0  0  0  0  0  0  0
   -0.1060   -3.7487    0.0000 O   0  0  0  0  0  0  0  0  0  0  0  0
    0.7500   -1.2990    0.0000 C   0  0  0  0  0  0  0  0  0  0  0  0
    1.5000    0.0000    0.0000 C   0  0  0  0  0  0  0  0  0  0  0  0
    0.7500    1.2990    0.0000 C   0  0  0  0  0  0  0  0  0  0  0  0
   -0.7500    1.2990    0.0000 C   0  0  0  0  0  0  0  0  0  0  0  0
   -1.5000    0.0000    0.0000 C   0  0  0  0  0  0  0  0  0  0  0  0
   -0.7500   -1.2990    0.0000 C   0  0  0  0  0  0  0  0  0  0  0  0
   -2.3002   -1.3623    0.0000 C   0  0  0  0  0  0  0  0  0  0  0  0
   -3.7181    0.3198    0.0000 O   0  0  0  0  0  0  0  0  0  0  0  0
   -3.2158   -2.3372    0.0000 N   0  0  0  0  0  0  0  0  0  0  0  0
   -3.8819   -3.4970    0.0000 C   0  0  0  0  0  0  0  0  0  0  0  0
   -5.9040   -2.6302    0.0000 C   0  0  0  0  0  0  0  0  0  0  0  0
   -6.0815   -1.1408    0.0000 C   0  0  0  0  0  0  0  0  0  0  0  0
   -4.8803   -0.2423    0.0000 C   0  0  0  0  0  0  0  0  0  0  0  0
   -5.0578    1.2471    0.0000 C   0  0  0  0  0  0  0  0  0  0  0  0
   -6.4365    1.8381    0.0000 C   0  0  0  0  0  0  0  0  0  0  0  0
   -6.6140    3.3276    0.0000 C   0  0  0  0  0  0  0  0  0  0  0  0
   -7.9927    3.9186    0.0000 C   0  0  0  0  0  0  0  0  0  0  0  0
   -9.1939    3.0201    0.0000 C   0  0  0  0  0  0  0  0  0  0  0  0
   -9.0163    1.5307    0.0000 C   0  0  0  0  0  0  0  0  0  0  0  0
   -7.6377    0.9397    0.0000 C   0  0  0  0  0  0  0  0  0  0  0  0
   -7.4602   -0.5498    0.0000 C   0  0  0  0  0  0  0  0  0  0  0  0
   -4.2626   -4.7792    0.0000 C   0  0  0  0  0  0  0  0  0  0  0  0
   -6.4300   -4.4021    0.0000 O   0  0  0  0  0  0  0  0  0  0  0  0
   -4.3373   -6.1146    0.0000 N   0  0  0  0  0  0  0  0  0  0  0  0
   -4.1021   -7.4312    0.0000 C   0  0  0  0  0  0  0  0  0  0  0  0
   -6.2082   -8.0669    0.0000 C   0  0  0  0  0  0  0  0  0  0  0  0
   -7.3016   -7.0400    0.0000 O   0  0  0  0  0  0  0  0  0  0  0  0
   -3.5696   -8.6581    0.0000 C   0  0  0  0  0  0  0  0  0  0  0  0
   -5.4723   -9.7624    0.0000 O   0  0  0  0  0  0  0  0  0  0  0  0
   -2.7685   -9.7291    0.0000 N   0  0  0  0  0  0  0  0  0  0  0  0
   -1.7420  -10.5864    0.0000 C   0  0  0  0  0  0  0  0  0  0  0  0
   -2.9467  -12.4273    0.0000 C   0  0  0  0  0  0  0  0  0  0  0  0
   -4.4444  -12.3434    0.0000 C   0  0  0  0  0  0  0  0  0  0  0  0
   -5.2658  -13.5985    0.0000 N   0  0  0  0  0  0  0  0  0  0  0  0
   -5.1206  -11.0045    0.0000 O   0  0  0  0  0  0  0  0  0  0  0  0
   -0.5454  -11.1840    0.0000 C   0  0  0  0  0  0  0  0  0  0  0  0
   -1.2931  -13.2530    0.0000 O   0  0  0  0  0  0  0  0  0  0  0  0
    0.7567  -11.4895    0.0000 N   0  0  0  0  0  0  0  0  0  0  0  0
    2.0942  -11.4864    0.0000 C   0  0  0  0  0  0  0  0  0  0  0  0
    2.3546  -13.6710    0.0000 C   0  0  0  0  0  0  0  0  0  0  0  0
    1.1534  -14.5694    0.0000 C   0  0  0  0  0  0  0  0  0  0  0  0
   -0.2253  -13.9785    0.0000 C   0  0  0  0  0  0  0  0  0  0  0  0
   -1.4264  -14.8769    0.0000 C   0  0  0  0  0  0  0  0  0  0  0  0
   -1.2489  -16.3664    0.0000 C   0  0  0  0  0  0  0  0  0  0  0  0
   -2.4501  -17.2648    0.0000 C   0  0  0  0  0  0  0  0  0  0  0  0
   -2.2725  -18.7543    0.0000 C   0  0  0  0  0  0  0  0  0  0  0  0
   -0.8939  -19.3453    0.0000 C   0  0  0  0  0  0  0  0  0  0  0  0
    0.3073  -18.4468    0.0000 C   0  0  0  0  0  0  0  0  0  0  0  0
    0.1298  -16.9574    0.0000 C   0  0  0  0  0  0  0  0  0  0  0  0
    1.3309  -16.0589    0.0000 C   0  0  0  0  0  0  0  0  0  0  0  0
    3.3949  -11.1751    0.0000 C   0  0  0  0  0  0  0  0  0  0  0  0
    4.1520  -13.2407    0.0000 O   0  0  0  0  0  0  0  0  0  0  0  0
    4.5887  -10.5721    0.0000 N   0  0  0  0  0  0  0  0  0  0  0  0
    5.6114   -9.7101    0.0000 C   0  0  0  0  0  0  0  0  0  0  0  0
    7.2150  -11.2162    0.0000 C   0  0  0  0  0  0  0  0  0  0  0  0
    6.8724  -12.6765    0.0000 C   0  0  0  0  0  0  0  0  0  0  0  0
    7.9658  -13.7034    0.0000 C   0  0  0  0  0  0  0  0  0  0  0  0
    9.4018  -13.2699    0.0000 C   0  0  0  0  0  0  0  0  0  0  0  0
    9.7444  -11.8096    0.0000 C   0  0  0  0  0  0  0  0  0  0  0  0
    8.6510  -10.7827    0.0000 C   0  0  0  0  0  0  0  0  0  0  0  0
    6.4076   -8.6354    0.0000 C   0  0  0  0  0  0  0  0  0  0  0  0
    8.3154   -9.7311    0.0000 O   0  0  0  0  0  0  0  0  0  0  0  0
    8.1358   -8.0625    0.0000 N   0  0  0  0  0  0  0  0  0  0  0  0
    1.2454    2.7149    0.0000 C   0  0  0  0  0  0  0  0  0  0  0  0
    0.0946    3.1047    0.0000 O   0  0  0  0  0  0  0  0  0  0  0  0
    2.0435    3.9849    0.0000 N   0  0  0  0  0  0  0  0  0  0  0  0
    3.1041    5.0456    0.0000 C   0  0  0  0  0  0  0  0  0  0  0  0
    4.3742    5.8437    0.0000 C   0  0  0  0  0  0  0  0  0  0  0  0
    3.7234    7.1951    0.0000 C   0  0  0  0  0  0  0  0  0  0  0  0
    2.2276    7.3072    0.0000 O   0  0  0  0  0  0  0  0  0  0  0  0
    4.5684    8.4345    0.0000 N   0  0  0  0  0  0  0  0  0  0  0  0
    3.9175    9.7859    0.0000 C   0  0  0  0  0  0  0  0  0  0  0  0
    4.7625   11.0253    0.0000 C   0  0  0  0  0  0  0  0  0  0  0  0
    4.1117   12.3767    0.0000 C   0  0  0  0  0  0  0  0  0  0  0  0
    4.9567   13.6161    0.0000 N   0  0  0  0  0  0  0  0  0  0  0  0
    2.6159   12.4888    0.0000 O   0  0  0  0  0  0  0  0  0  0  0  0
    2.4217    9.8980    0.0000 C   0  0  0  0  0  0  0  0  0  0  0  0
    1.5768    8.6587    0.0000 O   0  0  0  0  0  0  0  0  0  0  0  0
    1.7709   11.2495    0.0000 N   0  0  0  0  0  0  0  0  0  0  0  0
    0.2751   11.3616    0.0000 C   0  0  0  0  0  0  0  0  0  0  0  0
   -0.3757   12.7130    0.0000 C   0  0  0  0  0  0  0  0  0  0  0  0
   -1.8715   12.8251    0.0000 C   0  0  0  0  0  0  0  0  0  0  0  0
   -2.5224   14.1766    0.0000 C   0  0  0  0  0  0  0  0  0  0  0  0
   -4.0182   14.2887    0.0000 N   0  0  0  0  0  0  0  0  0  0  0  0
   -4.6690   15.6401    0.0000 C   0  0  0  0  0  0  0  0  0  0  0  0
   -3.8240   16.8795    0.0000 N   0  0  0  0  0  0  0  0  0  0  0  0
   -6.1648   15.7522    0.0000 N   0  0  0  0  0  0  0  0  0  0  0  0
   -0.5699   10.1222    0.0000 C   0  0  0  0  0  0  0  0  0  0  0  0
    0.0810    8.7708    0.0000 O   0  0  0  0  0  0  0  0  0  0  0  0
   -2.0657   10.2343    0.0000 N   0  0  0  0  0  0  0  0  0  0  0  0
   -2.9107    8.9949    0.0000 C   0  0  0  0  0  0  0  0  0  0  0  0
   -4.4065    9.1070    0.0000 C   0  0  0  0  0  0  0  0  0  0  0  0
   -5.2514    7.8677    0.0000 C   0  0  0  0  0  0  0  0  0  0  0  0
   -6.7473    7.9798    0.0000 C   0  0  0  0  0  0  0  0  0  0  0  0
   -7.5922    6.7404    0.0000 C   0  0  0  0  0  0  0  0  0  0  0  0
   -6.9414    5.3890    0.0000 C   0  0  0  0  0  0  0  0  0  0  0  0
   -7.6761    4.7341    0.0000 F   0  0  0  0  0  0  0  0  0  0  0  0
   -5.4456    5.2769    0.0000 C   0  0  0  0  0  0  0  0  0  0  0  0
   -4.7948    3.9254    0.0000 F   0  0  0  0  0  0  0  0  0  0  0  0
   -4.6006    6.5162    0.0000 C   0  0  0  0  0  0  0  0  0  0  0  0
   -2.2598    7.6435    0.0000 C   0  0  0  0  0  0  0  0  0  0  0  0
   -0.7640    7.5314    0.0000 O   0  0  0  0  0  0  0  0  0  0  0  0
   -3.1048    6.4041    0.0000 N   0  0  0  0  0  0  0  0  0  0  0  0
   -2.4540    5.0527    0.0000 C   0  0  0  0  0  0  0  0  0  0  0  0
   -3.2990    3.8133    0.0000 C   0  0  0  0  0  0  0  0  0  0  0  0
   -0.9582    4.9406    0.0000 C   0  0  0  0  0  0  0  0  0  0  0  0
   -0.1132    6.1799    0.0000 N   0  0  0  0  0  0  0  0  0  0  0  0
   -0.5684    3.7898    0.0000 O   0  0  0  0  0  0  0  0  0  0  0  0
    5.7900    6.3391    0.0000 N   0  0  0  0  0  0  0  0  0  0  0  0
    7.2806    6.5070    0.0000 C   0  0  0  0  0  0  0  0  0  0  0  0
    7.2806    8.0070    0.0000 O   0  0  0  0  0  0  0  0  0  0  0  0
    8.7712    6.3391    0.0000 C   0  0  0  0  0  0  0  0  0  0  0  0
    9.1050    7.8015    0.0000 C   0  0  0  0  0  0  0  0  0  0  0  0
   10.5383    8.2436    0.0000 C   0  0  0  0  0  0  0  0  0  0  0  0
   10.8721    9.7060    0.0000 C   0  0  0  0  0  0  0  0  0  0  0  0
   12.3055   10.1481    0.0000 N   0  0  0  0  0  0  0  0  0  0  0  0
   12.6392   11.6105    0.0000 C   0  0  0  0  0  0  0  0  0  0  0  0
   11.5397   12.6308    0.0000 N   0  0  0  0  0  0  0  0  0  0  0  0
   14.0726   12.0527    0.0000 N   0  0  0  0  0  0  0  0  0  0  0  0
   10.1870    5.8437    0.0000 N   0  0  0  0  0  0  0  0  0  0  0  0
   11.4571    5.0456    0.0000 C   0  0  0  0  0  0  0  0  0  0  0  0
   12.3923    6.2184    0.0000 O   0  0  0  0  0  0  0  0  0  0  0  0
   12.5177    3.9849    0.0000 C   0  0  0  0  0  0  0  0  0  0  0  0
   13.6905    4.9202    0.0000 C   0  0  0  0  0  0  0  0  0  0  0  0
   15.0868    4.3722    0.0000 C   0  0  0  0  0  0  0  0  0  0  0  0
   16.2596    5.3074    0.0000 C   0  0  0  0  0  0  0  0  0  0  0  0
   17.6559    4.7594    0.0000 N   0  0  0  0  0  0  0  0  0  0  0  0
   18.8286    5.6946    0.0000 C   0  0  0  0  0  0  0  0  0  0  0  0
   18.6050    7.1779    0.0000 N   0  0  0  0  0  0  0  0  0  0  0  0
   20.2249    5.1466    0.0000 N   0  0  0  0  0  0  0  0  0  0  0  0
   13.3158    2.7149    0.0000 N   0  0  0  0  0  0  0  0  0  0  0  0
   13.8112    1.2990    0.0000 C   0  0  0  0  0  0  0  0  0  0  0  0
   15.2736    1.6328    0.0000 O   0  0  0  0  0  0  0  0  0  0  0  0
  2  1  1  6
  2  3  1  0
  3  4  1  0
  4  5  2  0
  4  6  1  0
  6  7  1  1
  7  8  1  0
  8  9  2  0
  9 10  1  0
 10 11  2  0
 11 12  1  0
 12 13  2  0
  6 14  1  0
 14 15  1  0
 15 16  2  0
 15 17  1  0
 17 18  1  0
 18 19  1  0
 19 20  1  0
 20 21  1  0
 21 22  1  0
 22 23  1  0
 23 24  2  0
 23 25  1  0
 25 26  1  0
 26 27  2  0
 27 28  1  0
 28 29  2  0
 29 30  1  0
 29 31  1  0
 31 32  2  0
 31 33  1  0
 33 34  1  0
 34 35  1  1
 35 36  1  0
 36 37  2  0
 37 38  1  0
 38 39  2  0
 39 40  1  0
 40 41  2  0
 41 42  1  0
 42 43  2  0
 43 44  1  0
 44 45  2  0
 34 46  1  0
 46 47  2  0
 46 48  1  0
 48 49  1  0
 49 50  1  6
 50 51  1  0
 49 52  1  0
 52 53  2  0
 52 54  1  0
 54 55  1  0
 55 56  1  6
 56 57  1  0
 57 58  1  0
 57 59  2  0
 55 60  1  0
 60 61  2  0
 60 62  1  0
 62 63  1  0
 63 64  1  1
 64 65  1  0
 65 66  2  0
 66 67  1  0
 67 68  2  0
 68 69  1  0
 69 70  2  0
 70 71  1  0
 71 72  2  0
 72 73  1  0
 73 74  2  0
 63 75  1  0
 75 76  2  0
 75 77  1  0
 77 78  1  0
 78 79  1  6
 79 80  2  0
 80 81  1  0
 81 82  2  0
 82 83  1  0
 83 84  2  0
 78 85  1  0
 85 86  2  0
 85 87  1  0
 27 88  1  0
 88 89  2  0
 88 90  1  0
 90 91  1  0
 91 92  1  0
 92 93  1  1
 93 94  2  0
 93 95  1  0
 95 96  1  0
 96 97  1  6
 97 98  1  0
 98 99  1  0
 98100  2  0
 96101  1  0
101102  2  0
101103  1  0
103104  1  0
104105  1  1
105106  1  0
106107  1  0
107108  1  0
108109  1  0
109110  2  0
109111  1  0
104112  1  0
112113  2  0
112114  1  0
114115  1  0
115116  1  6
116117  1  0
117118  2  0
118119  1  0
119120  2  0
120121  1  0
120122  1  0
122123  1  0
122124  2  0
115125  1  0
125126  2  0
125127  1  0
127128  1  0
128129  1  1
128130  1  0
130131  1  0
130132  2  0
 92133  1  0
133134  1  0
134135  2  0
134136  1  0
136137  1  6
137138  1  0
138139  1  0
139140  1  0
140141  1  0
141142  2  0
141143  1  0
136144  1  0
144145  1  0
145146  2  0
145147  1  0
147148  1  1
148149  1  0
149150  1  0
150151  1  0
151152  1  0
152153  2  0
152154  1  0
147155  1  0
155156  1  0
156157  2  0
156  2  1  0
 13  8  1  0
 17 87  1  1
124117  1  0
 30 25  2  0
 45 36  1  0
 74 65  1  0
 84 79  1  0
 44 39  1  0
 73 68  1  0
M  END
>  <molecule_chembl_id>  (189) 
CHEMBL4870167

>  <canonical_smiles>  (189) 
C[C@@H]1NC(=O)[C@@H](Cc2ccccc2)NC(=O)[C@@H]2CCCCNC(=O)c3cc(cc(c3)C(=O)N[C@H](Cc3ccc4ccccc4c3)C(=O)N[C@@H](CO)C(=O)N[C@@H](CC(N)=O)C(=O)N[C@H](Cc3ccc4ccccc4c3)C(=O)N[C@@H](c3ccccc3)C(=O)N2)C(=O)NC[C@@H](C(=O)N[C@@H](CC(N)=O)C(=O)N[C@H](CCCNC(=N)N)C(=O)N[C@@H](Cc2ccc(F)c(F)c2)C(=O)N[C@H](C)C(N)=O)NC(=O)[C@H](CCCNC(=N)N)NC(=O)[C@@H](CCCNC(=N)N)NC1=O

>  <pchembl_value_mean>  (189) 
6.3

>  <inchi>  (189) 
InChI=1S/C105H129F2N29O21/c1-54(85(110)140)122-94(149)75(46-59-32-35-68(106)69(107)42-59)130-92(147)72(28-16-38-119-104(113)114)126-97(152)78(50-82(108)138)132-100(155)80-52-121-88(143)66-47-65-48-67(49-66)89(144)128-76(44-57-30-33-60-20-9-11-24-63(60)40-57)96(151)135-81(53-137)101(156)133-79(51-83(109)139)98(153)131-77(45-58-31-34-61-21-10-12-25-64(61)41-58)99(154)136-84(62-22-7-4-8-23-62)102(157)127-70(26-13-14-36-117-87(65)142)91(146)129-74(43-56-18-5-3-6-19-56)95(150)123-55(2)86(141)124-71(27-15-37-118-103(111)112)90(145)125-73(93(148)134-80)29-17-39-120-105(115)116/h3-12,18-25,30-35,40-42,47-49,54-55,70-81,84,137H,13-17,26-29,36-39,43-46,50-53H2,1-2H3,(H2,108,138)(H2,109,139)(H2,110,140)(H,117,142)(H,121,143)(H,122,149)(H,123,150)(H,124,141)(H,125,145)(H,126,152)(H,127,157)(H,128,144)(H,129,146)(H,130,147)(H,131,153)(H,132,155)(H,133,156)(H,134,148)(H,135,151)(H,136,154)(H4,111,112,118)(H4,113,114,119)(H4,115,116,120)/t54-,55+,70+,71-,72-,73+,74-,75+,76-,77-,78+,79+,80+,81+,84+/m1/s1

$$$$

     RDKit          2D

 31 34  0  0  0  0  0  0  0  0999 V2000
  -12.9291   -5.8905    0.0000 C   0  0  0  0  0  0  0  0  0  0  0  0
  -11.4373   -6.0472    0.0000 C   0  0  0  0  0  0  0  0  0  0  0  0
  -10.5556   -4.8337    0.0000 C   0  0  0  0  0  0  0  0  0  0  0  0
  -11.1657   -3.4634    0.0000 O   0  0  0  0  0  0  0  0  0  0  0  0
   -9.0638   -4.9905    0.0000 N   0  0  0  0  0  0  0  0  0  0  0  0
   -8.1821   -3.7770    0.0000 C   0  0  0  0  0  0  0  0  0  0  0  0
   -8.7923   -2.4067    0.0000 C   0  0  0  0  0  0  0  0  0  0  0  0
   -7.9106   -1.1931    0.0000 C   0  0  0  0  0  0  0  0  0  0  0  0
   -6.4188   -1.3499    0.0000 C   0  0  0  0  0  0  0  0  0  0  0  0
   -5.5371   -0.1364    0.0000 N   0  0  0  0  0  0  0  0  0  0  0  0
   -6.0006    1.2902    0.0000 N   0  0  0  0  0  0  0  0  0  0  0  0
   -4.7871    2.1718    0.0000 C   0  0  0  0  0  0  0  0  0  0  0  0
   -4.7871    3.6718    0.0000 C   0  0  0  0  0  0  0  0  0  0  0  0
   -6.0862    4.4218    0.0000 C   0  0  0  0  0  0  0  0  0  0  0  0
   -3.4881    4.4218    0.0000 C   0  0  0  0  0  0  0  0  0  0  0  0
   -3.5736    1.2902    0.0000 C   0  0  0  0  0  0  0  0  0  0  0  0
   -2.1470    1.7537    0.0000 C   0  0  0  0  0  0  0  0  0  0  0  0
   -1.0323    0.7500    0.0000 C   0  0  0  0  0  0  0  0  0  0  0  0
   -1.3442   -0.7172    0.0000 C   0  0  0  0  0  0  0  0  0  0  0  0
    0.3943    1.2135    0.0000 C   0  0  0  0  0  0  0  0  0  0  0  0
    0.7062    2.6807    0.0000 C   0  0  0  0  0  0  0  0  0  0  0  0
   -0.4086    3.6844    0.0000 C   0  0  0  0  0  0  0  0  0  0  0  0
   -0.4086    5.1844    0.0000 N   0  0  0  0  0  0  0  0  0  0  0  0
   -1.8351    5.6480    0.0000 N   0  0  0  0  0  0  0  0  0  0  0  0
   -2.7168    4.4344    0.0000 C   0  0  0  0  0  0  0  0  0  0  0  0
   -1.8351    3.2209    0.0000 C   0  0  0  0  0  0  0  0  0  0  0  0
   -4.0371   -0.1364    0.0000 C   0  0  0  0  0  0  0  0  0  0  0  0
   -3.1554   -1.3499    0.0000 C   0  0  0  0  0  0  0  0  0  0  0  0
   -5.8087   -2.7203    0.0000 C   0  0  0  0  0  0  0  0  0  0  0  0
   -4.3169   -2.8771    0.0000 F   0  0  0  0  0  0  0  0  0  0  0  0
   -6.6904   -3.9338    0.0000 C   0  0  0  0  0  0  0  0  0  0  0  0
  1  2  2  0
  2  3  1  0
  3  4  2  0
  3  5  1  0
  5  6  1  0
  6  7  2  0
  7  8  1  0
  8  9  2  0
  9 10  1  0
 10 11  1  0
 11 12  2  0
 12 13  1  0
 13 14  1  0
 13 15  1  0
 12 16  1  0
 16 17  1  0
 17 18  2  0
 18 19  1  0
 18 20  1  0
 20 21  2  0
 21 22  1  0
 22 23  1  0
 23 24  1  0
 24 25  2  0
 25 26  1  0
 16 27  2  0
 27 28  1  0
  9 29  1  0
 29 30  1  0
 29 31  2  0
 31  6  1  0
 27 10  1  0
 26 17  1  0
 26 22  2  0
M  END
>  <molecule_chembl_id>  (190) 
CHEMBL5266172

>  <canonical_smiles>  (190) 
C=CC(=O)Nc1ccc(-n2nc(C(C)C)c(-c3c(C)ccc4[nH]ncc34)c2C)c(F)c1

>  <pchembl_value_mean>  (190) 
6.3

>  <inchi>  (190) 
InChI=1S/C24H24FN5O/c1-6-21(31)27-16-8-10-20(18(25)11-16)30-15(5)23(24(29-30)13(2)3)22-14(4)7-9-19-17(22)12-26-28-19/h6-13H,1H2,2-5H3,(H,26,28)(H,27,31)

$$$$

     RDKit          2D

 58 66  0  0  0  0  0  0  0  0999 V2000
  -14.8313    5.9077    0.0000 C   0  0  0  0  0  0  0  0  0  0  0  0
  -15.4414    7.2780    0.0000 C   0  0  0  0  0  0  0  0  0  0  0  0
  -16.9086    7.5899    0.0000 C   0  0  0  0  0  0  0  0  0  0  0  0
  -17.0654    9.0817    0.0000 N   0  0  0  0  0  0  0  0  0  0  0  0
  -18.0691   10.1964    0.0000 C   0  0  0  0  0  0  0  0  0  0  0  0
  -17.3191   11.4954    0.0000 C   0  0  0  0  0  0  0  0  0  0  0  0
  -15.8519   11.1836    0.0000 C   0  0  0  0  0  0  0  0  0  0  0  0
  -15.6951    9.6918    0.0000 C   0  0  0  0  0  0  0  0  0  0  0  0
  -14.3248   10.3019    0.0000 C   0  0  0  0  0  0  0  0  0  0  0  0
  -13.1113    9.4202    0.0000 O   0  0  0  0  0  0  0  0  0  0  0  0
  -11.7410   10.0303    0.0000 C   0  0  0  0  0  0  0  0  0  0  0  0
  -10.5274    9.1486    0.0000 N   0  0  0  0  0  0  0  0  0  0  0  0
   -9.1571    9.7587    0.0000 C   0  0  0  0  0  0  0  0  0  0  0  0
   -7.9436    8.8771    0.0000 N   0  0  0  0  0  0  0  0  0  0  0  0
   -8.1004    7.3853    0.0000 C   0  0  0  0  0  0  0  0  0  0  0  0
   -6.8869    6.5036    0.0000 C   0  0  0  0  0  0  0  0  0  0  0  0
   -5.5165    7.1137    0.0000 N   0  0  0  0  0  0  0  0  0  0  0  0
   -4.3030    6.2320    0.0000 C   0  0  0  0  0  0  0  0  0  0  0  0
   -2.9327    6.8421    0.0000 O   0  0  0  0  0  0  0  0  0  0  0  0
   -4.4598    4.7402    0.0000 C   0  0  0  0  0  0  0  0  0  0  0  0
   -3.2463    3.8586    0.0000 C   0  0  0  0  0  0  0  0  0  0  0  0
   -3.4031    2.3668    0.0000 C   0  0  0  0  0  0  0  0  0  0  0  0
   -4.7734    1.7567    0.0000 C   0  0  0  0  0  0  0  0  0  0  0  0
   -4.9302    0.2649    0.0000 C   0  0  0  0  0  0  0  0  0  0  0  0
   -3.7167   -0.6168    0.0000 C   0  0  0  0  0  0  0  0  0  0  0  0
   -2.3463   -0.0067    0.0000 C   0  0  0  0  0  0  0  0  0  0  0  0
   -2.1895    1.4851    0.0000 C   0  0  0  0  0  0  0  0  0  0  0  0
   -0.8192    2.0952    0.0000 C   0  0  0  0  0  0  0  0  0  0  0  0
    0.3943    1.2135    0.0000 N   0  0  0  0  0  0  0  0  0  0  0  0
    1.2760    0.0000    0.0000 C   0  0  0  0  0  0  0  0  0  0  0  0
    0.3943   -1.2135    0.0000 C   0  0  0  0  0  0  0  0  0  0  0  0
   -1.0323   -0.7500    0.0000 C   0  0  0  0  0  0  0  0  0  0  0  0
   -1.0323    0.7500    0.0000 C   0  0  0  0  0  0  0  0  0  0  0  0
   -5.3597    8.6055    0.0000 C   0  0  0  0  0  0  0  0  0  0  0  0
   -6.5733    9.4872    0.0000 C   0  0  0  0  0  0  0  0  0  0  0  0
   -6.4165   10.9789    0.0000 C   0  0  0  0  0  0  0  0  0  0  0  0
   -9.0003   11.2505    0.0000 C   0  0  0  0  0  0  0  0  0  0  0  0
   -7.6300   11.8606    0.0000 C   0  0  0  0  0  0  0  0  0  0  0  0
   -7.4732   13.3524    0.0000 C   0  0  0  0  0  0  0  0  0  0  0  0
   -6.7140   13.8086    0.0000 Cl  0  0  0  0  0  0  0  0  0  0  0  0
   -8.6867   14.2341    0.0000 C   0  0  0  0  0  0  0  0  0  0  0  0
   -8.5299   15.7259    0.0000 C   0  0  0  0  0  0  0  0  0  0  0  0
   -9.7435   16.6075    0.0000 N   0  0  0  0  0  0  0  0  0  0  0  0
   -9.5867   18.0993    0.0000 C   0  0  0  0  0  0  0  0  0  0  0  0
  -10.8002   18.9810    0.0000 N   0  0  0  0  0  0  0  0  0  0  0  0
   -8.2164   18.7094    0.0000 C   0  0  0  0  0  0  0  0  0  0  0  0
   -7.0028   17.8278    0.0000 C   0  0  0  0  0  0  0  0  0  0  0  0
   -5.6325   18.4379    0.0000 C   0  0  0  0  0  0  0  0  0  0  0  0
   -7.1596   16.3360    0.0000 C   0  0  0  0  0  0  0  0  0  0  0  0
   -5.9461   15.4543    0.0000 C   0  0  0  0  0  0  0  0  0  0  0  0
   -4.7326   14.5726    0.0000 F   0  0  0  0  0  0  0  0  0  0  0  0
   -6.5502   14.8065    0.0000 F   0  0  0  0  0  0  0  0  0  0  0  0
   -5.0644   16.6678    0.0000 F   0  0  0  0  0  0  0  0  0  0  0  0
  -10.0571   13.6240    0.0000 C   0  0  0  0  0  0  0  0  0  0  0  0
  -11.2706   14.5057    0.0000 F   0  0  0  0  0  0  0  0  0  0  0  0
  -10.2138   12.1322    0.0000 C   0  0  0  0  0  0  0  0  0  0  0  0
  -11.5842   11.5221    0.0000 N   0  0  0  0  0  0  0  0  0  0  0  0
  -14.6914    8.5771    0.0000 C   0  0  0  0  0  0  0  0  0  0  0  0
  1  2  2  0
  2  3  1  0
  3  4  1  0
  4  5  1  0
  5  6  1  0
  6  7  1  0
  7  8  1  0
  8  9  1  6
  9 10  1  0
 10 11  1  0
 11 12  2  0
 12 13  1  0
 13 14  1  0
 14 15  1  0
 15 16  1  0
 16 17  1  0
 17 18  1  0
 18 19  2  0
 18 20  1  0
 20 21  2  0
 21 22  1  0
 22 23  2  0
 23 24  1  0
 24 25  2  0
 25 26  1  0
 26 27  2  0
 27 28  1  0
 28 29  1  0
 29 30  1  0
 30 31  1  0
 31 32  1  0
 32 33  1  0
 17 34  1  0
 34 35  1  0
 35 36  1  1
 13 37  2  0
 37 38  1  0
 38 39  2  0
 39 40  1  0
 39 41  1  0
 41 42  1  0
 42 43  2  0
 43 44  1  0
 44 45  1  0
 44 46  2  0
 46 47  1  0
 47 48  1  0
 47 49  2  0
 49 50  1  0
 50 51  1  0
 50 52  1  0
 50 53  1  0
 41 54  2  0
 54 55  1  0
 54 56  1  0
 56 57  2  0
  8 58  1  0
 58  2  1  0
  8  4  1  0
 57 11  1  0
 35 14  1  0
 56 37  1  0
 27 22  1  0
 33 29  1  0
 49 42  1  0
 32 26  1  0
M  END
>  <molecule_chembl_id>  (191) 
CHEMBL5408905

>  <canonical_smiles>  (191) 
C=C1CN2CCC[C@@]2(COc2nc(N3CCN(C(=O)/C=C/c4cccc5c4CN4CCC5C4)C[C@@H]3C)c3cc(Cl)c(-c4nc(N)cc(C)c4C(F)(F)F)c(F)c3n2)C1

>  <pchembl_value_mean>  (191) 
6.325

>  <inchi>  (191) 
InChI=1S/C43H45ClF4N8O2/c1-24-18-42(11-5-12-55(42)19-24)23-58-41-51-38-30(17-32(44)35(37(38)45)39-36(43(46,47)48)25(2)16-33(49)50-39)40(52-41)56-15-14-54(20-26(56)3)34(57)9-8-27-6-4-7-29-28-10-13-53(21-28)22-31(27)29/h4,6-9,16-17,26,28H,1,5,10-15,18-23H2,2-3H3,(H2,49,50)/b9-8+/t26-,28?,42-/m0/s1

$$$$

     RDKit          2D

 40 45  0  0  0  0  0  0  0  0999 V2000
    9.7500   -3.8971    0.0000 C   0  0  0  0  0  0  0  0  0  0  0  0
    8.2500   -3.8971    0.0000 C   0  0  0  0  0  0  0  0  0  0  0  0
    7.5000   -2.5981    0.0000 C   0  0  0  0  0  0  0  0  0  0  0  0
    8.2500   -1.2990    0.0000 O   0  0  0  0  0  0  0  0  0  0  0  0
    6.0000   -2.5981    0.0000 N   0  0  0  0  0  0  0  0  0  0  0  0
    5.2500   -3.8971    0.0000 C   0  0  0  0  0  0  0  0  0  0  0  0
    3.7500   -3.8971    0.0000 C   0  0  0  0  0  0  0  0  0  0  0  0
    3.0000   -2.5981    0.0000 N   0  0  0  0  0  0  0  0  0  0  0  0
    1.5000   -2.5981    0.0000 C   0  0  0  0  0  0  0  0  0  0  0  0
    0.7500   -3.8971    0.0000 N   0  0  0  0  0  0  0  0  0  0  0  0
   -0.7500   -3.8971    0.0000 C   0  0  0  0  0  0  0  0  0  0  0  0
   -1.5000   -5.1962    0.0000 O   0  0  0  0  0  0  0  0  0  0  0  0
   -3.0000   -5.1962    0.0000 C   0  0  0  0  0  0  0  0  0  0  0  0
   -3.7500   -6.4952    0.0000 C   0  0  0  0  0  0  0  0  0  0  0  0
   -3.1399   -7.8655    0.0000 C   0  0  0  0  0  0  0  0  0  0  0  0
   -4.2546   -8.8692    0.0000 N   0  0  0  0  0  0  0  0  0  0  0  0
   -4.0978  -10.3610    0.0000 C   0  0  0  0  0  0  0  0  0  0  0  0
   -5.5537   -8.1192    0.0000 C   0  0  0  0  0  0  0  0  0  0  0  0
   -5.2418   -6.6520    0.0000 N   0  0  0  0  0  0  0  0  0  0  0  0
   -1.5000   -2.5981    0.0000 N   0  0  0  0  0  0  0  0  0  0  0  0
   -0.7500   -1.2990    0.0000 C   0  0  0  0  0  0  0  0  0  0  0  0
    0.7500   -1.2990    0.0000 C   0  0  0  0  0  0  0  0  0  0  0  0
    1.5000    0.0000    0.0000 C   0  0  0  0  0  0  0  0  0  0  0  0
    0.7500    1.2990    0.0000 C   0  0  0  0  0  0  0  0  0  0  0  0
   -0.7500    1.2990    0.0000 C   0  0  0  0  0  0  0  0  0  0  0  0
   -1.5000    2.5981    0.0000 C   0  0  0  0  0  0  0  0  0  0  0  0
   -3.0000    2.5981    0.0000 C   0  0  0  0  0  0  0  0  0  0  0  0
   -3.7500    3.8971    0.0000 C   0  0  0  0  0  0  0  0  0  0  0  0
   -5.2500    3.8971    0.0000 O   0  0  0  0  0  0  0  0  0  0  0  0
   -3.0000    5.1962    0.0000 C   0  0  0  0  0  0  0  0  0  0  0  0
   -1.5000    5.1962    0.0000 C   0  0  0  0  0  0  0  0  0  0  0  0
   -0.7500    6.4952    0.0000 C   0  0  0  0  0  0  0  0  0  0  0  0
    0.7500    6.4952    0.0000 C   0  0  0  0  0  0  0  0  0  0  0  0
    1.5000    5.1962    0.0000 C   0  0  0  0  0  0  0  0  0  0  0  0
    0.7500    3.8971    0.0000 C   0  0  0  0  0  0  0  0  0  0  0  0
   -0.7500    3.8971    0.0000 C   0  0  0  0  0  0  0  0  0  0  0  0
   -1.5000    0.0000    0.0000 C   0  0  0  0  0  0  0  0  0  0  0  0
    3.7500   -1.2990    0.0000 C   0  0  0  0  0  0  0  0  0  0  0  0
    3.0000   -0.0000    0.0000 C   0  0  0  0  0  0  0  0  0  0  0  0
    5.2500   -1.2990    0.0000 C   0  0  0  0  0  0  0  0  0  0  0  0
  1  2  2  0
  2  3  1  0
  3  4  2  0
  3  5  1  0
  5  6  1  0
  6  7  1  0
  7  8  1  0
  8  9  1  0
  9 10  2  0
 10 11  1  0
 11 12  1  0
 12 13  1  0
 13 14  1  0
 14 15  2  0
 15 16  1  0
 16 17  1  0
 16 18  1  0
 18 19  2  0
 11 20  2  0
 20 21  1  0
 21 22  2  0
 22 23  1  0
 23 24  1  0
 24 25  1  0
 25 26  1  1
 26 27  2  0
 27 28  1  0
 28 29  1  0
 28 30  2  0
 30 31  1  0
 31 32  2  0
 32 33  1  0
 33 34  2  0
 34 35  1  0
 35 36  2  0
 25 37  1  0
  8 38  1  0
 38 39  1  1
 38 40  1  0
 40  5  1  0
 22  9  1  0
 36 26  1  0
 19 14  1  0
 37 21  1  0
 36 31  1  0
M  END
>  <molecule_chembl_id>  (192) 
CHEMBL5079099

>  <canonical_smiles>  (192) 
C=CC(=O)N1CCN(c2nc(OCc3cn(C)cn3)nc3c2CC[C@H](c2cc(O)cc4ccccc24)C3)[C@@H](C)C1

>  <pchembl_value_mean>  (192) 
6.33

>  <inchi>  (192) 
InChI=1S/C31H34N6O3/c1-4-29(39)36-11-12-37(20(2)16-36)30-26-10-9-22(27-15-24(38)13-21-7-5-6-8-25(21)27)14-28(26)33-31(34-30)40-18-23-17-35(3)19-32-23/h4-8,13,15,17,19-20,22,38H,1,9-12,14,16,18H2,2-3H3/t20-,22-/m0/s1

$$$$

     RDKit          2D

 58 65  0  0  0  0  0  0  0  0999 V2000
    5.1731   -3.9415    0.0000 C   0  0  0  0  0  0  0  0  0  0  0  0
    3.8740   -4.6915    0.0000 C   0  0  0  0  0  0  0  0  0  0  0  0
    3.7172   -6.1833    0.0000 C   0  0  0  0  0  0  0  0  0  0  0  0
    2.2500   -6.4952    0.0000 N   0  0  0  0  0  0  0  0  0  0  0  0
    1.2463   -7.6099    0.0000 C   0  0  0  0  0  0  0  0  0  0  0  0
   -0.1240   -6.9998    0.0000 C   0  0  0  0  0  0  0  0  0  0  0  0
    0.0328   -5.5080    0.0000 C   0  0  0  0  0  0  0  0  0  0  0  0
    1.5000   -5.1962    0.0000 C   0  0  0  0  0  0  0  0  0  0  0  0
    0.7500   -3.8971    0.0000 C   0  0  0  0  0  0  0  0  0  0  0  0
    1.5000   -2.5981    0.0000 O   0  0  0  0  0  0  0  0  0  0  0  0
    0.7500   -1.2990    0.0000 C   0  0  0  0  0  0  0  0  0  0  0  0
    1.5000    0.0000    0.0000 N   0  0  0  0  0  0  0  0  0  0  0  0
    0.7500    1.2990    0.0000 C   0  0  0  0  0  0  0  0  0  0  0  0
    1.5000    2.5981    0.0000 N   0  0  0  0  0  0  0  0  0  0  0  0
    3.0000    2.5981    0.0000 C   0  0  0  0  0  0  0  0  0  0  0  0
    3.7500    3.8971    0.0000 C   0  0  0  0  0  0  0  0  0  0  0  0
    3.0000    5.1962    0.0000 N   0  0  0  0  0  0  0  0  0  0  0  0
    3.7500    6.4952    0.0000 C   0  0  0  0  0  0  0  0  0  0  0  0
    3.0000    7.7942    0.0000 O   0  0  0  0  0  0  0  0  0  0  0  0
    5.2500    6.4952    0.0000 C   0  0  0  0  0  0  0  0  0  0  0  0
    6.0000    7.7942    0.0000 C   0  0  0  0  0  0  0  0  0  0  0  0
    7.5000    7.7942    0.0000 C   0  0  0  0  0  0  0  0  0  0  0  0
    8.2500    6.4952    0.0000 C   0  0  0  0  0  0  0  0  0  0  0  0
    9.7500    6.4952    0.0000 C   0  0  0  0  0  0  0  0  0  0  0  0
   10.5000    7.7942    0.0000 C   0  0  0  0  0  0  0  0  0  0  0  0
    9.7500    9.0933    0.0000 C   0  0  0  0  0  0  0  0  0  0  0  0
    8.2500    9.0933    0.0000 C   0  0  0  0  0  0  0  0  0  0  0  0
    7.5000   10.3923    0.0000 C   0  0  0  0  0  0  0  0  0  0  0  0
    8.2500   11.6913    0.0000 N   0  0  0  0  0  0  0  0  0  0  0  0
    9.7500   11.6913    0.0000 C   0  0  0  0  0  0  0  0  0  0  0  0
   11.1595   12.2044    0.0000 C   0  0  0  0  0  0  0  0  0  0  0  0
    9.4895   13.1686    0.0000 C   0  0  0  0  0  0  0  0  0  0  0  0
   10.5000   10.3923    0.0000 C   0  0  0  0  0  0  0  0  0  0  0  0
    1.5000    5.1962    0.0000 C   0  0  0  0  0  0  0  0  0  0  0  0
    0.7500    3.8971    0.0000 C   0  0  0  0  0  0  0  0  0  0  0  0
   -0.7500    3.8971    0.0000 C   0  0  0  0  0  0  0  0  0  0  0  0
   -0.7500    1.2990    0.0000 C   0  0  0  0  0  0  0  0  0  0  0  0
   -1.5000    2.5981    0.0000 C   0  0  0  0  0  0  0  0  0  0  0  0
   -3.0000    2.5981    0.0000 C   0  0  0  0  0  0  0  0  0  0  0  0
   -3.5331    3.3054    0.0000 Cl  0  0  0  0  0  0  0  0  0  0  0  0
   -3.7500    1.2990    0.0000 C   0  0  0  0  0  0  0  0  0  0  0  0
   -5.2500    1.2990    0.0000 C   0  0  0  0  0  0  0  0  0  0  0  0
   -6.0000    0.0000    0.0000 N   0  0  0  0  0  0  0  0  0  0  0  0
   -7.5000    0.0000    0.0000 C   0  0  0  0  0  0  0  0  0  0  0  0
   -8.2500   -1.2990    0.0000 N   0  0  0  0  0  0  0  0  0  0  0  0
   -8.2500    1.2990    0.0000 C   0  0  0  0  0  0  0  0  0  0  0  0
   -7.5000    2.5981    0.0000 C   0  0  0  0  0  0  0  0  0  0  0  0
   -8.2500    3.8971    0.0000 C   0  0  0  0  0  0  0  0  0  0  0  0
   -6.0000    2.5981    0.0000 C   0  0  0  0  0  0  0  0  0  0  0  0
   -5.2500    3.8971    0.0000 C   0  0  0  0  0  0  0  0  0  0  0  0
   -4.5000    5.1962    0.0000 F   0  0  0  0  0  0  0  0  0  0  0  0
   -6.5490    4.6471    0.0000 F   0  0  0  0  0  0  0  0  0  0  0  0
   -4.5426    3.3640    0.0000 F   0  0  0  0  0  0  0  0  0  0  0  0
   -3.0000    0.0000    0.0000 C   0  0  0  0  0  0  0  0  0  0  0  0
   -3.7500   -1.2990    0.0000 F   0  0  0  0  0  0  0  0  0  0  0  0
   -1.5000    0.0000    0.0000 C   0  0  0  0  0  0  0  0  0  0  0  0
   -0.7500   -1.2990    0.0000 N   0  0  0  0  0  0  0  0  0  0  0  0
    2.5037   -4.0814    0.0000 C   0  0  0  0  0  0  0  0  0  0  0  0
  1  2  2  0
  2  3  1  0
  3  4  1  0
  4  5  1  0
  5  6  1  0
  6  7  1  0
  7  8  1  0
  8  9  1  6
  9 10  1  0
 10 11  1  0
 11 12  2  0
 12 13  1  0
 13 14  1  0
 14 15  1  0
 15 16  1  0
 16 17  1  0
 17 18  1  0
 18 19  2  0
 18 20  1  0
 20 21  2  0
 21 22  1  0
 22 23  2  0
 23 24  1  0
 24 25  2  0
 25 26  1  0
 26 27  2  0
 27 28  1  0
 28 29  1  0
 29 30  1  0
 30 31  1  0
 30 32  1  0
 30 33  1  0
 17 34  1  0
 34 35  1  0
 35 36  1  1
 13 37  2  0
 37 38  1  0
 38 39  2  0
 39 40  1  0
 39 41  1  0
 41 42  1  0
 42 43  2  0
 43 44  1  0
 44 45  1  0
 44 46  2  0
 46 47  1  0
 47 48  1  0
 47 49  2  0
 49 50  1  0
 50 51  1  0
 50 52  1  0
 50 53  1  0
 41 54  2  0
 54 55  1  0
 54 56  1  0
 56 57  2  0
  8 58  1  0
 58  2  1  0
  8  4  1  0
 57 11  1  0
 35 14  1  0
 56 37  1  0
 27 22  1  0
 49 42  1  0
 33 26  1  0
M  END
>  <molecule_chembl_id>  (193) 
CHEMBL5401101

>  <canonical_smiles>  (193) 
C=C1CN2CCC[C@@]2(COc2nc(N3CCN(C(=O)/C=C/c4cccc5c4CNC(C)(C)C5)C[C@@H]3C)c3cc(Cl)c(-c4nc(N)cc(C)c4C(F)(F)F)c(F)c3n2)C1

>  <pchembl_value_mean>  (193) 
6.34

>  <inchi>  (193) 
InChI=1S/C43H47ClF4N8O2/c1-24-18-42(12-7-13-55(42)21-24)23-58-40-52-37-29(17-31(44)34(36(37)45)38-35(43(46,47)48)25(2)16-32(49)51-38)39(53-40)56-15-14-54(22-26(56)3)33(57)11-10-27-8-6-9-28-19-41(4,5)50-20-30(27)28/h6,8-11,16-17,26,50H,1,7,12-15,18-23H2,2-5H3,(H2,49,51)/b11-10+/t26-,42-/m0/s1

$$$$

     RDKit          2D

 39 45  0  0  0  0  0  0  0  0999 V2000
   -5.2802   -7.7620    0.0000 C   0  0  0  0  0  0  0  0  0  0  0  0
   -4.1655   -6.7583    0.0000 N   0  0  0  0  0  0  0  0  0  0  0  0
   -2.6983   -7.0701    0.0000 C   0  0  0  0  0  0  0  0  0  0  0  0
   -1.9483   -5.7711    0.0000 N   0  0  0  0  0  0  0  0  0  0  0  0
   -2.9520   -4.6564    0.0000 C   0  0  0  0  0  0  0  0  0  0  0  0
   -2.6401   -3.1891    0.0000 C   0  0  0  0  0  0  0  0  0  0  0  0
   -1.2135   -2.7256    0.0000 N   0  0  0  0  0  0  0  0  0  0  0  0
   -0.0000   -3.6073    0.0000 C   0  0  0  0  0  0  0  0  0  0  0  0
    1.2135   -2.7256    0.0000 C   0  0  0  0  0  0  0  0  0  0  0  0
    0.7500   -1.2990    0.0000 C   0  0  0  0  0  0  0  0  0  0  0  0
    1.5000    0.0000    0.0000 C   0  0  0  0  0  0  0  0  0  0  0  0
    0.7500    1.2990    0.0000 C   0  0  0  0  0  0  0  0  0  0  0  0
   -0.7500    1.2990    0.0000 C   0  0  0  0  0  0  0  0  0  0  0  0
   -1.5000    2.5981    0.0000 C   0  0  0  0  0  0  0  0  0  0  0  0
   -0.7500    3.8971    0.0000 N   0  0  0  0  0  0  0  0  0  0  0  0
   -1.5000    5.1962    0.0000 C   0  0  0  0  0  0  0  0  0  0  0  0
   -0.7500    6.4952    0.0000 C   0  0  0  0  0  0  0  0  0  0  0  0
    0.7418    6.6520    0.0000 N   0  0  0  0  0  0  0  0  0  0  0  0
    1.0537    8.1192    0.0000 C   0  0  0  0  0  0  0  0  0  0  0  0
    2.3527    8.8692    0.0000 C   0  0  0  0  0  0  0  0  0  0  0  0
    2.3527   10.3692    0.0000 C   0  0  0  0  0  0  0  0  0  0  0  0
    1.0537   11.1192    0.0000 C   0  0  0  0  0  0  0  0  0  0  0  0
   -0.2454   10.3692    0.0000 C   0  0  0  0  0  0  0  0  0  0  0  0
   -0.2454    8.8692    0.0000 C   0  0  0  0  0  0  0  0  0  0  0  0
   -1.3601    7.8655    0.0000 C   0  0  0  0  0  0  0  0  0  0  0  0
   -2.8273    8.1774    0.0000 C   0  0  0  0  0  0  0  0  0  0  0  0
   -3.9420    7.1737    0.0000 N   0  0  0  0  0  0  0  0  0  0  0  0
   -5.2411    7.9237    0.0000 C   0  0  0  0  0  0  0  0  0  0  0  0
   -6.6114    7.3136    0.0000 O   0  0  0  0  0  0  0  0  0  0  0  0
   -4.9292    9.3909    0.0000 C   0  0  0  0  0  0  0  0  0  0  0  0
   -5.8109   10.6044    0.0000 C   0  0  0  0  0  0  0  0  0  0  0  0
   -5.2008   11.9747    0.0000 C   0  0  0  0  0  0  0  0  0  0  0  0
   -3.7090   12.1315    0.0000 C   0  0  0  0  0  0  0  0  0  0  0  0
   -3.0989   13.5019    0.0000 O   0  0  0  0  0  0  0  0  0  0  0  0
   -2.8273   10.9180    0.0000 C   0  0  0  0  0  0  0  0  0  0  0  0
   -3.4374    9.5477    0.0000 C   0  0  0  0  0  0  0  0  0  0  0  0
   -1.5000    0.0000    0.0000 C   0  0  0  0  0  0  0  0  0  0  0  0
   -0.7500   -1.2990    0.0000 C   0  0  0  0  0  0  0  0  0  0  0  0
   -4.3223   -5.2665    0.0000 C   0  0  0  0  0  0  0  0  0  0  0  0
  1  2  1  0
  2  3  1  0
  3  4  2  0
  4  5  1  0
  5  6  1  0
  6  7  1  0
  7  8  1  0
  8  9  2  0
  9 10  1  0
 10 11  2  0
 11 12  1  0
 12 13  2  0
 13 14  1  0
 14 15  1  0
 15 16  1  0
 16 17  1  0
 17 18  1  0
 18 19  1  0
 19 20  2  0
 20 21  1  0
 21 22  2  0
 22 23  1  0
 23 24  2  0
 24 25  1  0
 26 25  1  1
 26 27  1  0
 27 28  1  0
 28 29  2  0
 28 30  1  0
 30 31  2  0
 31 32  1  0
 32 33  2  0
 33 34  1  0
 33 35  1  0
 35 36  2  0
 13 37  1  0
 37 38  2  0
  5 39  2  0
 39  2  1  0
 38  7  1  0
 38 10  1  0
 25 17  2  0
 36 26  1  0
 24 19  1  0
 36 30  1  0
M  END
>  <molecule_chembl_id>  (194) 
CHEMBL4750445

>  <canonical_smiles>  (194) 
Cn1cnc(Cn2ccc3ccc(CNCc4[nH]c5ccccc5c4[C@H]4NC(=O)c5ccc(O)cc54)cc32)c1

>  <pchembl_value_mean>  (194) 
6.35

>  <inchi>  (194) 
InChI=1S/C31H28N6O2/c1-36-16-21(33-18-36)17-37-11-10-20-7-6-19(12-28(20)37)14-32-15-27-29(24-4-2-3-5-26(24)34-27)30-25-13-22(38)8-9-23(25)31(39)35-30/h2-13,16,18,30,32,34,38H,14-15,17H2,1H3,(H,35,39)/t30-/m0/s1

$$$$

     RDKit          2D

 42 46  0  0  0  0  0  0  0  0999 V2000
   -9.7500   -1.2990    0.0000 C   0  0  0  0  0  0  0  0  0  0  0  0
   -8.2500   -1.2990    0.0000 C   0  0  0  0  0  0  0  0  0  0  0  0
   -7.5000   -2.5981    0.0000 C   0  0  0  0  0  0  0  0  0  0  0  0
   -8.2500   -3.8971    0.0000 O   0  0  0  0  0  0  0  0  0  0  0  0
   -6.0000   -2.5981    0.0000 N   0  0  0  0  0  0  0  0  0  0  0  0
   -5.2500   -1.2990    0.0000 C   0  0  0  0  0  0  0  0  0  0  0  0
   -3.7500   -1.2990    0.0000 C   0  0  0  0  0  0  0  0  0  0  0  0
   -3.0000   -2.5981    0.0000 N   0  0  0  0  0  0  0  0  0  0  0  0
   -1.5000   -2.5981    0.0000 C   0  0  0  0  0  0  0  0  0  0  0  0
   -0.7500   -3.8971    0.0000 N   0  0  0  0  0  0  0  0  0  0  0  0
    0.7500   -3.8971    0.0000 C   0  0  0  0  0  0  0  0  0  0  0  0
    1.1772   -4.9037    0.0000 O   0  0  0  0  0  0  0  0  0  0  0  0
    1.5000   -2.5981    0.0000 N   0  0  0  0  0  0  0  0  0  0  0  0
    3.0000   -2.5981    0.0000 C   0  0  0  0  0  0  0  0  0  0  0  0
    3.7500   -1.2990    0.0000 C   0  0  0  0  0  0  0  0  0  0  0  0
    5.2500   -1.2990    0.0000 C   0  0  0  0  0  0  0  0  0  0  0  0
    6.0000   -2.5981    0.0000 C   0  0  0  0  0  0  0  0  0  0  0  0
    5.2500   -3.8971    0.0000 C   0  0  0  0  0  0  0  0  0  0  0  0
    3.7500   -3.8971    0.0000 C   0  0  0  0  0  0  0  0  0  0  0  0
    3.0000   -5.1962    0.0000 C   0  0  0  0  0  0  0  0  0  0  0  0
    3.7500   -6.4952    0.0000 C   0  0  0  0  0  0  0  0  0  0  0  0
    1.9147   -5.3294    0.0000 C   0  0  0  0  0  0  0  0  0  0  0  0
    0.7500   -1.2990    0.0000 C   0  0  0  0  0  0  0  0  0  0  0  0
    1.5000    0.0000    0.0000 C   0  0  0  0  0  0  0  0  0  0  0  0
    0.7500    1.2990    0.0000 C   0  0  0  0  0  0  0  0  0  0  0  0
    1.5000    2.5981    0.0000 C   0  0  0  0  0  0  0  0  0  0  0  0
    3.0000    2.5981    0.0000 C   0  0  0  0  0  0  0  0  0  0  0  0
    3.7500    3.8971    0.0000 C   0  0  0  0  0  0  0  0  0  0  0  0
    3.0000    5.1962    0.0000 C   0  0  0  0  0  0  0  0  0  0  0  0
    1.5000    5.1962    0.0000 C   0  0  0  0  0  0  0  0  0  0  0  0
    0.7500    3.8971    0.0000 C   0  0  0  0  0  0  0  0  0  0  0  0
   -0.7500    3.8971    0.0000 C   0  0  0  0  0  0  0  0  0  0  0  0
   -2.2500    3.8971    0.0000 F   0  0  0  0  0  0  0  0  0  0  0  0
   -0.7500    5.3971    0.0000 F   0  0  0  0  0  0  0  0  0  0  0  0
   -0.8700    2.9203    0.0000 F   0  0  0  0  0  0  0  0  0  0  0  0
   -0.7500    1.2990    0.0000 C   0  0  0  0  0  0  0  0  0  0  0  0
   -1.3423    2.0850    0.0000 Cl  0  0  0  0  0  0  0  0  0  0  0  0
   -1.5000    0.0000    0.0000 C   0  0  0  0  0  0  0  0  0  0  0  0
   -0.7500   -1.2990    0.0000 C   0  0  0  0  0  0  0  0  0  0  0  0
   -3.7500   -3.8971    0.0000 C   0  0  0  0  0  0  0  0  0  0  0  0
   -3.0000   -5.1962    0.0000 C   0  0  0  0  0  0  0  0  0  0  0  0
   -5.2500   -3.8971    0.0000 C   0  0  0  0  0  0  0  0  0  0  0  0
  1  2  2  0
  2  3  1  0
  3  4  2  0
  3  5  1  0
  5  6  1  0
  6  7  1  0
  7  8  1  0
  8  9  1  0
  9 10  2  0
 10 11  1  0
 11 12  2  0
 11 13  1  0
 13 14  1  0
 14 15  2  0
 15 16  1  0
 16 17  2  0
 17 18  1  0
 18 19  2  0
 19 20  1  0
 20 21  1  0
 20 22  1  0
 13 23  1  0
 23 24  2  0
 24 25  1  0
 25 26  1  0
 26 27  2  0
 27 28  1  0
 28 29  2  0
 29 30  1  0
 30 31  2  0
 31 32  1  0
 32 33  1  0
 32 34  1  0
 32 35  1  0
 25 36  2  0
 36 37  1  0
 36 38  1  0
 38 39  2  0
  8 40  1  0
 40 41  1  1
 40 42  1  0
 42  5  1  0
 39  9  1  0
 19 14  1  0
 39 23  1  0
 31 26  1  0
M  END
>  <molecule_chembl_id>  (195) 
CHEMBL4438343

>  <canonical_smiles>  (195) 
C=CC(=O)N1CCN(c2nc(=O)n(-c3ccccc3C(C)C)c3cc(-c4ccccc4C(F)(F)F)c(Cl)cc23)[C@@H](C)C1

>  <pchembl_value_mean>  (195) 
6.36

>  <inchi>  (195) 
InChI=1S/C32H30ClF3N4O2/c1-5-29(41)38-14-15-39(20(4)18-38)30-24-16-26(33)23(22-11-6-8-12-25(22)32(34,35)36)17-28(24)40(31(42)37-30)27-13-9-7-10-21(27)19(2)3/h5-13,16-17,19-20H,1,14-15,18H2,2-4H3/t20-/m0/s1

$$$$

     RDKit          2D

 44 51  0  0  0  0  0  0  0  0999 V2000
    4.5000    0.0000    0.0000 C   0  0  0  0  0  0  0  0  0  0  0  0
    3.0000    0.0000    0.0000 C   0  0  0  0  0  0  0  0  0  0  0  0
    1.5000    0.0000    0.0000 C   0  0  0  0  0  0  0  0  0  0  0  0
    0.7500   -1.2990    0.0000 C   0  0  0  0  0  0  0  0  0  0  0  0
    1.5000   -2.5981    0.0000 F   0  0  0  0  0  0  0  0  0  0  0  0
   -0.7500   -1.2990    0.0000 C   0  0  0  0  0  0  0  0  0  0  0  0
   -1.5000    0.0000    0.0000 C   0  0  0  0  0  0  0  0  0  0  0  0
   -0.7500    1.2990    0.0000 C   0  0  0  0  0  0  0  0  0  0  0  0
   -1.5000    2.5981    0.0000 C   0  0  0  0  0  0  0  0  0  0  0  0
   -0.7500    3.8971    0.0000 C   0  0  0  0  0  0  0  0  0  0  0  0
   -1.5000    5.1962    0.0000 O   0  0  0  0  0  0  0  0  0  0  0  0
    0.7500    3.8971    0.0000 C   0  0  0  0  0  0  0  0  0  0  0  0
    1.5000    2.5981    0.0000 C   0  0  0  0  0  0  0  0  0  0  0  0
    3.0000    2.5981    0.0000 C   0  0  0  0  0  0  0  0  0  0  0  0
    3.7500    1.2990    0.0000 N   0  0  0  0  0  0  0  0  0  0  0  0
    5.2500    1.2990    0.0000 C   0  0  0  0  0  0  0  0  0  0  0  0
    6.0000    2.5981    0.0000 C   0  0  0  0  0  0  0  0  0  0  0  0
    7.5000    2.5981    0.0000 C   0  0  0  0  0  0  0  0  0  0  0  0
    8.2500    1.2990    0.0000 N   0  0  0  0  0  0  0  0  0  0  0  0
    9.7500    1.2990    0.0000 C   0  0  0  0  0  0  0  0  0  0  0  0
   10.5000   -0.0000    0.0000 C   0  0  0  0  0  0  0  0  0  0  0  0
   10.8119   -1.4672    0.0000 C   0  0  0  0  0  0  0  0  0  0  0  0
    9.5128   -2.2172    0.0000 C   0  0  0  0  0  0  0  0  0  0  0  0
    8.3981   -1.2135    0.0000 C   0  0  0  0  0  0  0  0  0  0  0  0
    7.5000   -0.0000    0.0000 C   0  0  0  0  0  0  0  0  0  0  0  0
    9.0082    0.1568    0.0000 N   0  0  0  0  0  0  0  0  0  0  0  0
    8.2500    3.8971    0.0000 C   0  0  0  0  0  0  0  0  0  0  0  0
    7.5000    5.1962    0.0000 C   0  0  0  0  0  0  0  0  0  0  0  0
    8.2500    6.4952    0.0000 C   0  0  0  0  0  0  0  0  0  0  0  0
    9.0000    7.7942    0.0000 C   0  0  0  0  0  0  0  0  0  0  0  0
    9.7500    9.0933    0.0000 C   0  0  0  0  0  0  0  0  0  0  0  0
    8.2828    9.4051    0.0000 C   0  0  0  0  0  0  0  0  0  0  0  0
    8.1260   10.8969    0.0000 C   0  0  0  0  0  0  0  0  0  0  0  0
    9.4963   11.5070    0.0000 C   0  0  0  0  0  0  0  0  0  0  0  0
   10.5000   10.3923    0.0000 N   0  0  0  0  0  0  0  0  0  0  0  0
   11.9672   10.0804    0.0000 C   0  0  0  0  0  0  0  0  0  0  0  0
   12.1240    8.5887    0.0000 C   0  0  0  0  0  0  0  0  0  0  0  0
   13.4231    7.8387    0.0000 F   0  0  0  0  0  0  0  0  0  0  0  0
   10.7537    7.9785    0.0000 C   0  0  0  0  0  0  0  0  0  0  0  0
    6.0000    5.1962    0.0000 N   0  0  0  0  0  0  0  0  0  0  0  0
    5.2500    3.8971    0.0000 C   0  0  0  0  0  0  0  0  0  0  0  0
    3.7500    3.8971    0.0000 C   0  0  0  0  0  0  0  0  0  0  0  0
    3.0000    5.1962    0.0000 F   0  0  0  0  0  0  0  0  0  0  0  0
    0.7500    1.2990    0.0000 C   0  0  0  0  0  0  0  0  0  0  0  0
  1  2  3  0
  2  3  1  0
  3  4  2  0
  4  5  1  0
  4  6  1  0
  6  7  2  0
  7  8  1  0
  8  9  2  0
  9 10  1  0
 10 11  1  0
 10 12  2  0
 12 13  1  0
 13 14  1  0
 14 15  2  0
 15 16  1  0
 16 17  2  0
 17 18  1  0
 18 19  1  0
 19 20  1  0
 20 21  1  0
 21 22  1  0
 22 23  1  0
 23 24  1  0
 24 25  1  0
 24 26  1  0
 18 27  2  0
 27 28  1  0
 28 29  1  0
 29 30  3  0
 31 30  1  1
 31 32  1  0
 32 33  1  0
 33 34  1  0
 34 35  1  0
 35 36  1  0
 36 37  1  0
 37 38  1  6
 37 39  1  0
 28 40  2  0
 40 41  1  0
 41 42  2  0
 42 43  1  0
 13 44  2  0
 44  3  1  0
 44  8  1  0
 42 14  1  0
 41 17  1  0
 25 19  1  0
 35 31  1  0
 26 21  1  0
 39 31  1  0
M  END
>  <molecule_chembl_id>  (196) 
CHEMBL5430615

>  <canonical_smiles>  (196) 
C#Cc1c(F)ccc2cc(O)cc(-c3ncc4c(N5CC6CCC(C5)N6)cc(C#C[C@@]56CCCN5C[C@H](F)C6)nc4c3F)c12

>  <pchembl_value_mean>  (196) 
6.36

>  <inchi>  (196) 
InChI=1S/C35H30F3N5O/c1-2-26-29(37)7-4-20-12-25(44)14-27(31(20)26)33-32(38)34-28(16-39-33)30(42-18-23-5-6-24(19-42)40-23)13-22(41-34)8-10-35-9-3-11-43(35)17-21(36)15-35/h1,4,7,12-14,16,21,23-24,40,44H,3,5-6,9,11,15,17-19H2/t21-,23?,24?,35-/m1/s1

$$$$

     RDKit          2D

 31 35  0  0  0  0  0  0  0  0999 V2000
    5.2500   -1.2990    0.0000 C   0  0  0  0  0  0  0  0  0  0  0  0
    3.7500   -1.2990    0.0000 C   0  0  0  0  0  0  0  0  0  0  0  0
    3.0000    0.0000    0.0000 C   0  0  0  0  0  0  0  0  0  0  0  0
    3.7500    1.2990    0.0000 O   0  0  0  0  0  0  0  0  0  0  0  0
    1.5000    0.0000    0.0000 N   0  0  0  0  0  0  0  0  0  0  0  0
    0.7500   -1.2990    0.0000 C   0  0  0  0  0  0  0  0  0  0  0  0
   -0.7500   -1.2990    0.0000 C   0  0  0  0  0  0  0  0  0  0  0  0
   -1.5000    0.0000    0.0000 N   0  0  0  0  0  0  0  0  0  0  0  0
   -3.0000    0.0000    0.0000 C   0  0  0  0  0  0  0  0  0  0  0  0
   -3.7500    1.2990    0.0000 C   0  0  0  0  0  0  0  0  0  0  0  0
   -5.2500    1.2990    0.0000 C   0  0  0  0  0  0  0  0  0  0  0  0
   -6.0000    0.0000    0.0000 N   0  0  0  0  0  0  0  0  0  0  0  0
   -5.2500   -1.2990    0.0000 C   0  0  0  0  0  0  0  0  0  0  0  0
   -6.0000   -2.5981    0.0000 C   0  0  0  0  0  0  0  0  0  0  0  0
   -5.2500   -3.8971    0.0000 C   0  0  0  0  0  0  0  0  0  0  0  0
   -6.0000   -5.1962    0.0000 C   0  0  0  0  0  0  0  0  0  0  0  0
   -7.5000   -5.1962    0.0000 C   0  0  0  0  0  0  0  0  0  0  0  0
   -8.2500   -3.8971    0.0000 O   0  0  0  0  0  0  0  0  0  0  0  0
   -8.2500   -6.4952    0.0000 C   0  0  0  0  0  0  0  0  0  0  0  0
   -7.5000   -7.7942    0.0000 C   0  0  0  0  0  0  0  0  0  0  0  0
   -6.0000   -7.7942    0.0000 C   0  0  0  0  0  0  0  0  0  0  0  0
   -5.2500   -6.4952    0.0000 C   0  0  0  0  0  0  0  0  0  0  0  0
   -3.7500   -6.4952    0.0000 F   0  0  0  0  0  0  0  0  0  0  0  0
   -3.7500   -3.8971    0.0000 C   0  0  0  0  0  0  0  0  0  0  0  0
   -3.0000   -5.1962    0.0000 Cl  0  0  0  0  0  0  0  0  0  0  0  0
   -3.0000   -2.5981    0.0000 C   0  0  0  0  0  0  0  0  0  0  0  0
   -3.7500   -1.2990    0.0000 C   0  0  0  0  0  0  0  0  0  0  0  0
   -3.0000    2.5981    0.0000 N   0  0  0  0  0  0  0  0  0  0  0  0
   -1.5000    2.5981    0.0000 C   0  0  0  0  0  0  0  0  0  0  0  0
   -0.7500    1.2990    0.0000 C   0  0  0  0  0  0  0  0  0  0  0  0
    0.7500    1.2990    0.0000 C   0  0  0  0  0  0  0  0  0  0  0  0
  1  2  2  0
  2  3  1  0
  3  4  2  0
  3  5  1  0
  5  6  1  0
  6  7  1  0
  7  8  1  0
  8  9  1  0
  9 10  2  0
 10 11  1  0
 11 12  2  0
 12 13  1  0
 13 14  2  0
 14 15  1  0
 15 16  1  0
 16 17  2  0
 17 18  1  0
 17 19  1  0
 19 20  2  0
 20 21  1  0
 21 22  2  0
 22 23  1  0
 15 24  2  0
 24 25  1  0
 24 26  1  0
 26 27  2  0
 10 28  1  0
 28 29  1  0
 30 29  1  1
 30 31  1  0
 31  5  1  0
 30  8  1  0
 27  9  1  0
 27 13  1  0
 22 16  1  0
M  END
>  <molecule_chembl_id>  (197) 
CHEMBL4560503

>  <canonical_smiles>  (197) 
C=CC(=O)N1CCN2c3c(cnc4cc(-c5c(O)cccc5F)c(Cl)cc34)NC[C@H]2C1

>  <pchembl_value_mean>  (197) 
6.41

>  <inchi>  (197) 
InChI=1S/C23H20ClFN4O2/c1-2-21(31)28-6-7-29-13(12-28)10-26-19-11-27-18-9-14(16(24)8-15(18)23(19)29)22-17(25)4-3-5-20(22)30/h2-5,8-9,11,13,26,30H,1,6-7,10,12H2/t13-/m0/s1

$$$$

     RDKit          2D

 40 47  0  0  0  0  0  0  0  0999 V2000
    3.0000    0.0000    0.0000 F   0  0  0  0  0  0  0  0  0  0  0  0
    1.5000    0.0000    0.0000 C   0  0  0  0  0  0  0  0  0  0  0  0
    0.7500   -1.2990    0.0000 C   0  0  0  0  0  0  0  0  0  0  0  0
    1.5000   -2.5981    0.0000 C   0  0  0  0  0  0  0  0  0  0  0  0
    3.0000   -2.5981    0.0000 C   0  0  0  0  0  0  0  0  0  0  0  0
    3.7500   -3.8971    0.0000 C   0  0  0  0  0  0  0  0  0  0  0  0
    3.0000   -5.1962    0.0000 C   0  0  0  0  0  0  0  0  0  0  0  0
    1.5000   -5.1962    0.0000 C   0  0  0  0  0  0  0  0  0  0  0  0
    0.7500   -6.4952    0.0000 C   0  0  0  0  0  0  0  0  0  0  0  0
   -0.7500   -6.4952    0.0000 C   0  0  0  0  0  0  0  0  0  0  0  0
   -1.5000   -5.1962    0.0000 C   0  0  0  0  0  0  0  0  0  0  0  0
   -0.7500   -3.8971    0.0000 C   0  0  0  0  0  0  0  0  0  0  0  0
   -1.5000   -2.5981    0.0000 F   0  0  0  0  0  0  0  0  0  0  0  0
    0.7500   -3.8971    0.0000 C   0  0  0  0  0  0  0  0  0  0  0  0
   -0.7500   -1.2990    0.0000 N   0  0  0  0  0  0  0  0  0  0  0  0
   -1.5000    0.0000    0.0000 C   0  0  0  0  0  0  0  0  0  0  0  0
   -0.7500    1.2990    0.0000 C   0  0  0  0  0  0  0  0  0  0  0  0
   -1.5000    2.5981    0.0000 C   0  0  0  0  0  0  0  0  0  0  0  0
   -3.0000    2.5981    0.0000 N   0  0  0  0  0  0  0  0  0  0  0  0
   -3.7500    3.8971    0.0000 C   0  0  0  0  0  0  0  0  0  0  0  0
   -5.2500    3.8971    0.0000 C   0  0  0  0  0  0  0  0  0  0  0  0
   -6.6766    3.4336    0.0000 C   0  0  0  0  0  0  0  0  0  0  0  0
   -6.6766    1.9336    0.0000 C   0  0  0  0  0  0  0  0  0  0  0  0
   -5.2500    1.4701    0.0000 C   0  0  0  0  0  0  0  0  0  0  0  0
   -3.7500    1.2990    0.0000 C   0  0  0  0  0  0  0  0  0  0  0  0
   -4.3683    2.6836    0.0000 N   0  0  0  0  0  0  0  0  0  0  0  0
   -0.7500    3.8971    0.0000 N   0  0  0  0  0  0  0  0  0  0  0  0
    0.7500    3.8971    0.0000 C   0  0  0  0  0  0  0  0  0  0  0  0
    1.5000    5.1962    0.0000 O   0  0  0  0  0  0  0  0  0  0  0  0
    3.0000    5.1962    0.0000 C   0  0  0  0  0  0  0  0  0  0  0  0
    3.7500    6.4952    0.0000 C   0  0  0  0  0  0  0  0  0  0  0  0
    2.2828    6.8071    0.0000 C   0  0  0  0  0  0  0  0  0  0  0  0
    2.1260    8.2988    0.0000 C   0  0  0  0  0  0  0  0  0  0  0  0
    3.4963    8.9089    0.0000 C   0  0  0  0  0  0  0  0  0  0  0  0
    4.5000    7.7942    0.0000 N   0  0  0  0  0  0  0  0  0  0  0  0
    5.9672    7.4824    0.0000 C   0  0  0  0  0  0  0  0  0  0  0  0
    6.1240    5.9906    0.0000 C   0  0  0  0  0  0  0  0  0  0  0  0
    4.7537    5.3805    0.0000 C   0  0  0  0  0  0  0  0  0  0  0  0
    1.5000    2.5981    0.0000 N   0  0  0  0  0  0  0  0  0  0  0  0
    0.7500    1.2990    0.0000 C   0  0  0  0  0  0  0  0  0  0  0  0
  1  2  1  0
  2  3  2  0
  3  4  1  0
  4  5  2  0
  5  6  1  0
  6  7  2  0
  7  8  1  0
  8  9  2  0
  9 10  1  0
 10 11  2  0
 11 12  1  0
 12 13  1  0
 12 14  2  0
  3 15  1  0
 15 16  2  0
 16 17  1  0
 17 18  2  0
 18 19  1  0
 19 20  1  0
 21 20  1  6
 21 22  1  0
 22 23  1  0
 24 23  1  6
 24 25  1  0
 24 26  1  0
 18 27  1  0
 27 28  2  0
 28 29  1  0
 29 30  1  0
 30 31  1  0
 31 32  1  0
 32 33  1  0
 33 34  1  0
 34 35  1  0
 35 36  1  0
 36 37  1  0
 37 38  1  0
 28 39  1  0
 39 40  2  0
 40  2  1  0
 14  4  1  0
 40 17  1  0
 14  8  1  0
 25 19  1  0
 35 31  1  0
 26 21  1  0
 38 31  1  0
M  END
>  <molecule_chembl_id>  (198) 
CHEMBL5084656

>  <canonical_smiles>  (198) 
Fc1c(-c2cccc3cccc(F)c23)ncc2c(N3C[C@H]4CC[C@@H](C3)N4)nc(OCC34CCCN3CCC4)nc12

>  <pchembl_value_mean>  (198) 
6.42

>  <inchi>  (198) 
InChI=1S/C31H32F2N6O/c32-24-8-2-6-19-5-1-7-22(25(19)24)27-26(33)28-23(15-34-27)29(38-16-20-9-10-21(17-38)35-20)37-30(36-28)40-18-31-11-3-13-39(31)14-4-12-31/h1-2,5-8,15,20-21,35H,3-4,9-14,16-18H2/t20-,21+

$$$$

     RDKit          2D

 45 51  0  0  0  0  0  0  0  0999 V2000
    4.8107  -10.9304    0.0000 C   0  0  0  0  0  0  0  0  0  0  0  0
    4.0607   -9.6313    0.0000 C   0  0  0  0  0  0  0  0  0  0  0  0
    4.8107   -8.3323    0.0000 C   0  0  0  0  0  0  0  0  0  0  0  0
    6.3107   -8.3323    0.0000 O   0  0  0  0  0  0  0  0  0  0  0  0
    4.0607   -7.0333    0.0000 N   0  0  0  0  0  0  0  0  0  0  0  0
    2.6118   -6.6450    0.0000 C   0  0  0  0  0  0  0  0  0  0  0  0
    3.0000   -5.1962    0.0000 C   0  0  0  0  0  0  0  0  0  0  0  0
    3.7500   -3.8971    0.0000 C   0  0  0  0  0  0  0  0  0  0  0  0
    3.0000   -2.5981    0.0000 C   0  0  0  0  0  0  0  0  0  0  0  0
    1.5000   -2.5981    0.0000 N   0  0  0  0  0  0  0  0  0  0  0  0
    0.7500   -1.2990    0.0000 C   0  0  0  0  0  0  0  0  0  0  0  0
    1.5000    0.0000    0.0000 N   0  0  0  0  0  0  0  0  0  0  0  0
    0.7500    1.2990    0.0000 C   0  0  0  0  0  0  0  0  0  0  0  0
    1.5000    2.5981    0.0000 O   0  0  0  0  0  0  0  0  0  0  0  0
    3.0000    2.5981    0.0000 C   0  0  0  0  0  0  0  0  0  0  0  0
    3.7500    3.8971    0.0000 C   0  0  0  0  0  0  0  0  0  0  0  0
    5.2500    3.8971    0.0000 C   0  0  0  0  0  0  0  0  0  0  0  0
    6.0000    5.1962    0.0000 N   0  0  0  0  0  0  0  0  0  0  0  0
    7.5000    5.1962    0.0000 C   0  0  0  0  0  0  0  0  0  0  0  0
    8.2500    6.4952    0.0000 C   0  0  0  0  0  0  0  0  0  0  0  0
    7.5000    7.7942    0.0000 C   0  0  0  0  0  0  0  0  0  0  0  0
    6.0000    7.7942    0.0000 C   0  0  0  0  0  0  0  0  0  0  0  0
    5.2500    6.4952    0.0000 C   0  0  0  0  0  0  0  0  0  0  0  0
   -0.7500    1.2990    0.0000 N   0  0  0  0  0  0  0  0  0  0  0  0
   -1.5000    0.0000    0.0000 C   0  0  0  0  0  0  0  0  0  0  0  0
   -3.0000    0.0000    0.0000 C   0  0  0  0  0  0  0  0  0  0  0  0
   -3.7500    1.2990    0.0000 F   0  0  0  0  0  0  0  0  0  0  0  0
   -3.7500   -1.2990    0.0000 C   0  0  0  0  0  0  0  0  0  0  0  0
   -5.2500   -1.2990    0.0000 C   0  0  0  0  0  0  0  0  0  0  0  0
   -6.0000    0.0000    0.0000 C   0  0  0  0  0  0  0  0  0  0  0  0
   -5.2500    1.2990    0.0000 C   0  0  0  0  0  0  0  0  0  0  0  0
   -7.5000    0.0000    0.0000 C   0  0  0  0  0  0  0  0  0  0  0  0
   -8.2500   -1.2990    0.0000 C   0  0  0  0  0  0  0  0  0  0  0  0
   -7.5000   -2.5981    0.0000 C   0  0  0  0  0  0  0  0  0  0  0  0
   -7.9635   -4.0247    0.0000 N   0  0  0  0  0  0  0  0  0  0  0  0
   -6.7500   -4.9063    0.0000 N   0  0  0  0  0  0  0  0  0  0  0  0
   -5.5365   -4.0247    0.0000 C   0  0  0  0  0  0  0  0  0  0  0  0
   -6.0000   -2.5981    0.0000 C   0  0  0  0  0  0  0  0  0  0  0  0
   -3.0000   -2.5981    0.0000 C   0  0  0  0  0  0  0  0  0  0  0  0
   -3.7500   -3.8971    0.0000 Cl  0  0  0  0  0  0  0  0  0  0  0  0
   -1.5000   -2.5981    0.0000 C   0  0  0  0  0  0  0  0  0  0  0  0
   -0.7500   -1.2990    0.0000 C   0  0  0  0  0  0  0  0  0  0  0  0
    0.7500   -3.8971    0.0000 C   0  0  0  0  0  0  0  0  0  0  0  0
    1.5000   -5.1962    0.0000 C   0  0  0  0  0  0  0  0  0  0  0  0
    4.4489   -5.5844    0.0000 C   0  0  0  0  0  0  0  0  0  0  0  0
  1  2  2  0
  2  3  1  0
  3  4  2  0
  3  5  1  0
  5  6  1  0
  6  7  1  0
  7  8  1  0
  8  9  1  0
  9 10  1  0
 10 11  1  0
 11 12  2  0
 12 13  1  0
 13 14  1  0
 14 15  1  0
 15 16  1  0
 16 17  1  0
 17 18  1  0
 18 19  1  0
 19 20  1  0
 20 21  1  0
 21 22  1  0
 22 23  1  0
 13 24  2  0
 24 25  1  0
 25 26  2  0
 26 27  1  0
 26 28  1  0
 28 29  1  0
 29 30  2  0
 30 31  1  0
 30 32  1  0
 32 33  2  0
 33 34  1  0
 34 35  1  0
 35 36  1  0
 36 37  2  0
 37 38  1  0
 28 39  2  0
 39 40  1  0
 39 41  1  0
 41 42  2  0
 10 43  1  0
 43 44  1  0
  7 45  1  0
 45  5  1  0
 44  7  1  0
 42 11  1  0
 23 18  1  0
 42 25  1  0
 38 29  1  0
 38 34  2  0
M  END
>  <molecule_chembl_id>  (199) 
CHEMBL5206689

>  <canonical_smiles>  (199) 
C=CC(=O)N1CC2(CCN(c3nc(OCCCN4CCCCC4)nc4c(F)c(-c5c(C)ccc6[nH]ncc56)c(Cl)cc34)CC2)C1

>  <pchembl_value_mean>  (199) 
6.43

>  <inchi>  (199) 
InChI=1S/C34H39ClFN7O2/c1-3-27(44)43-20-34(21-43)10-15-42(16-11-34)32-23-18-25(35)29(28-22(2)8-9-26-24(28)19-37-40-26)30(36)31(23)38-33(39-32)45-17-7-14-41-12-5-4-6-13-41/h3,8-9,18-19H,1,4-7,10-17,20-21H2,2H3,(H,37,40)

$$$$

     RDKit          2D

 40 47  0  0  0  0  0  0  0  0999 V2000
    3.0000    0.0000    0.0000 F   0  0  0  0  0  0  0  0  0  0  0  0
    1.5000    0.0000    0.0000 C   0  0  0  0  0  0  0  0  0  0  0  0
    0.7500   -1.2990    0.0000 C   0  0  0  0  0  0  0  0  0  0  0  0
   -0.7500   -1.2990    0.0000 C   0  0  0  0  0  0  0  0  0  0  0  0
   -1.5000    0.0000    0.0000 C   0  0  0  0  0  0  0  0  0  0  0  0
   -3.0000    0.0000    0.0000 C   0  0  0  0  0  0  0  0  0  0  0  0
   -3.7500    1.2990    0.0000 C   0  0  0  0  0  0  0  0  0  0  0  0
   -3.0000    2.5981    0.0000 C   0  0  0  0  0  0  0  0  0  0  0  0
   -1.5000    2.5981    0.0000 C   0  0  0  0  0  0  0  0  0  0  0  0
   -0.7500    3.8971    0.0000 C   0  0  0  0  0  0  0  0  0  0  0  0
    0.7500    3.8971    0.0000 N   0  0  0  0  0  0  0  0  0  0  0  0
    1.5000    5.1962    0.0000 C   0  0  0  0  0  0  0  0  0  0  0  0
    0.7500    6.4952    0.0000 C   0  0  0  0  0  0  0  0  0  0  0  0
    1.5000    7.7942    0.0000 C   0  0  0  0  0  0  0  0  0  0  0  0
    3.0000    7.7942    0.0000 N   0  0  0  0  0  0  0  0  0  0  0  0
    3.7500    9.0933    0.0000 C   0  0  0  0  0  0  0  0  0  0  0  0
    5.2500    9.0933    0.0000 C   0  0  0  0  0  0  0  0  0  0  0  0
    6.6766    8.6297    0.0000 C   0  0  0  0  0  0  0  0  0  0  0  0
    6.6766    7.1297    0.0000 C   0  0  0  0  0  0  0  0  0  0  0  0
    5.2500    6.6662    0.0000 C   0  0  0  0  0  0  0  0  0  0  0  0
    3.7500    6.4952    0.0000 C   0  0  0  0  0  0  0  0  0  0  0  0
    4.3683    7.8797    0.0000 N   0  0  0  0  0  0  0  0  0  0  0  0
    0.7500    9.0933    0.0000 N   0  0  0  0  0  0  0  0  0  0  0  0
   -0.7500    9.0933    0.0000 C   0  0  0  0  0  0  0  0  0  0  0  0
   -1.5000   10.3923    0.0000 O   0  0  0  0  0  0  0  0  0  0  0  0
   -0.7500   11.6913    0.0000 C   0  0  0  0  0  0  0  0  0  0  0  0
   -1.5000   12.9904    0.0000 C   0  0  0  0  0  0  0  0  0  0  0  0
   -2.5037   11.8757    0.0000 C   0  0  0  0  0  0  0  0  0  0  0  0
   -3.8740   12.4858    0.0000 C   0  0  0  0  0  0  0  0  0  0  0  0
   -3.7172   13.9776    0.0000 C   0  0  0  0  0  0  0  0  0  0  0  0
   -2.2500   14.2894    0.0000 N   0  0  0  0  0  0  0  0  0  0  0  0
   -1.2463   15.4041    0.0000 C   0  0  0  0  0  0  0  0  0  0  0  0
    0.1240   14.7940    0.0000 C   0  0  0  0  0  0  0  0  0  0  0  0
   -0.0328   13.3022    0.0000 C   0  0  0  0  0  0  0  0  0  0  0  0
   -1.5000    7.7942    0.0000 N   0  0  0  0  0  0  0  0  0  0  0  0
   -0.7500    6.4952    0.0000 C   0  0  0  0  0  0  0  0  0  0  0  0
   -1.5000    5.1962    0.0000 C   0  0  0  0  0  0  0  0  0  0  0  0
   -3.0000    5.1962    0.0000 F   0  0  0  0  0  0  0  0  0  0  0  0
   -0.7500    1.2990    0.0000 C   0  0  0  0  0  0  0  0  0  0  0  0
    0.7500    1.2990    0.0000 C   0  0  0  0  0  0  0  0  0  0  0  0
  1  2  1  0
  2  3  2  0
  3  4  1  0
  4  5  2  0
  5  6  1  0
  6  7  2  0
  7  8  1  0
  8  9  2  0
  9 10  1  0
 10 11  2  0
 11 12  1  0
 12 13  2  0
 13 14  1  0
 14 15  1  0
 15 16  1  0
 17 16  1  1
 17 18  1  0
 18 19  1  0
 20 19  1  1
 20 21  1  0
 20 22  1  0
 14 23  2  0
 23 24  1  0
 24 25  1  0
 25 26  1  0
 26 27  1  0
 27 28  1  0
 28 29  1  0
 29 30  1  0
 30 31  1  0
 31 32  1  0
 32 33  1  0
 33 34  1  0
 24 35  2  0
 35 36  1  0
 36 37  2  0
 37 38  1  0
  9 39  1  0
 39 40  2  0
 40  2  1  0
 39  5  1  0
 37 10  1  0
 36 13  1  0
 21 15  1  0
 31 27  1  0
 22 17  1  0
 34 27  1  0
M  END
>  <molecule_chembl_id>  (200) 
CHEMBL5094356

>  <canonical_smiles>  (200) 
Fc1ccc2cccc(-c3ncc4c(N5C[C@H]6CC[C@@H](C5)N6)nc(OCC56CCCN5CCC6)nc4c3F)c2c1

>  <pchembl_value_mean>  (200) 
6.43

>  <inchi>  (200) 
InChI=1S/C31H32F2N6O/c32-20-7-6-19-4-1-5-23(24(19)14-20)27-26(33)28-25(15-34-27)29(38-16-21-8-9-22(17-38)35-21)37-30(36-28)40-18-31-10-2-12-39(31)13-3-11-31/h1,4-7,14-15,21-22,35H,2-3,8-13,16-18H2/t21-,22+

$$$$

     RDKit          2D

 41 46  0  0  0  0  0  0  0  0999 V2000
    9.7500   -3.8971    0.0000 C   0  0  0  0  0  0  0  0  0  0  0  0
    8.2500   -3.8971    0.0000 C   0  0  0  0  0  0  0  0  0  0  0  0
    7.5000   -2.5981    0.0000 C   0  0  0  0  0  0  0  0  0  0  0  0
    8.2500   -1.2990    0.0000 O   0  0  0  0  0  0  0  0  0  0  0  0
    6.0000   -2.5981    0.0000 N   0  0  0  0  0  0  0  0  0  0  0  0
    5.2500   -3.8971    0.0000 C   0  0  0  0  0  0  0  0  0  0  0  0
    3.7500   -3.8971    0.0000 C   0  0  0  0  0  0  0  0  0  0  0  0
    3.0000   -2.5981    0.0000 N   0  0  0  0  0  0  0  0  0  0  0  0
    1.5000   -2.5981    0.0000 C   0  0  0  0  0  0  0  0  0  0  0  0
    0.7500   -3.8971    0.0000 N   0  0  0  0  0  0  0  0  0  0  0  0
   -0.7500   -3.8971    0.0000 C   0  0  0  0  0  0  0  0  0  0  0  0
   -1.5000   -5.1962    0.0000 O   0  0  0  0  0  0  0  0  0  0  0  0
   -3.0000   -5.1962    0.0000 C   0  0  0  0  0  0  0  0  0  0  0  0
   -3.7500   -6.4952    0.0000 C   0  0  0  0  0  0  0  0  0  0  0  0
   -3.1399   -7.8655    0.0000 C   0  0  0  0  0  0  0  0  0  0  0  0
   -4.2546   -8.8692    0.0000 C   0  0  0  0  0  0  0  0  0  0  0  0
   -5.5537   -8.1192    0.0000 C   0  0  0  0  0  0  0  0  0  0  0  0
   -5.2418   -6.6520    0.0000 N   0  0  0  0  0  0  0  0  0  0  0  0
   -6.2455   -5.5373    0.0000 C   0  0  0  0  0  0  0  0  0  0  0  0
   -1.5000   -2.5981    0.0000 N   0  0  0  0  0  0  0  0  0  0  0  0
   -0.7500   -1.2990    0.0000 C   0  0  0  0  0  0  0  0  0  0  0  0
    0.7500   -1.2990    0.0000 C   0  0  0  0  0  0  0  0  0  0  0  0
    1.5000    0.0000    0.0000 C   0  0  0  0  0  0  0  0  0  0  0  0
    0.7500    1.2990    0.0000 C   0  0  0  0  0  0  0  0  0  0  0  0
   -0.7500    1.2990    0.0000 N   0  0  0  0  0  0  0  0  0  0  0  0
   -1.5000    2.5981    0.0000 C   0  0  0  0  0  0  0  0  0  0  0  0
   -3.0000    2.5981    0.0000 C   0  0  0  0  0  0  0  0  0  0  0  0
   -3.7500    1.2990    0.0000 C   0  0  0  0  0  0  0  0  0  0  0  0
   -4.5000    0.0000    0.0000 F   0  0  0  0  0  0  0  0  0  0  0  0
   -5.0490    2.0490    0.0000 F   0  0  0  0  0  0  0  0  0  0  0  0
   -2.4510    0.5490    0.0000 F   0  0  0  0  0  0  0  0  0  0  0  0
   -3.7500    3.8971    0.0000 C   0  0  0  0  0  0  0  0  0  0  0  0
   -3.0000    5.1962    0.0000 C   0  0  0  0  0  0  0  0  0  0  0  0
   -1.5000    5.1962    0.0000 C   0  0  0  0  0  0  0  0  0  0  0  0
   -0.4963    6.3109    0.0000 N   0  0  0  0  0  0  0  0  0  0  0  0
    0.8740    5.7008    0.0000 N   0  0  0  0  0  0  0  0  0  0  0  0
    0.7172    4.2090    0.0000 C   0  0  0  0  0  0  0  0  0  0  0  0
   -0.7500    3.8971    0.0000 C   0  0  0  0  0  0  0  0  0  0  0  0
   -1.5000    0.0000    0.0000 C   0  0  0  0  0  0  0  0  0  0  0  0
    3.7500   -1.2990    0.0000 C   0  0  0  0  0  0  0  0  0  0  0  0
    5.2500   -1.2990    0.0000 C   0  0  0  0  0  0  0  0  0  0  0  0
  1  2  2  0
  2  3  1  0
  3  4  2  0
  3  5  1  0
  5  6  1  0
  6  7  1  0
  7  8  1  0
  8  9  1  0
  9 10  2  0
 10 11  1  0
 11 12  1  0
 12 13  1  0
 14 13  1  6
 14 15  1  0
 15 16  1  0
 16 17  1  0
 17 18  1  0
 18 19  1  0
 11 20  2  0
 20 21  1  0
 21 22  2  0
 22 23  1  0
 23 24  1  0
 24 25  1  0
 25 26  1  0
 26 27  2  0
 27 28  1  0
 28 29  1  0
 28 30  1  0
 28 31  1  0
 27 32  1  0
 32 33  2  0
 33 34  1  0
 34 35  1  0
 35 36  1  0
 36 37  2  0
 37 38  1  0
 25 39  1  0
  8 40  1  0
 40 41  1  0
 41  5  1  0
 22  9  1  0
 38 26  1  0
 18 14  1  0
 39 21  1  0
 38 34  2  0
M  END
>  <molecule_chembl_id>  (201) 
CHEMBL4642659

>  <canonical_smiles>  (201) 
C=CC(=O)N1CCN(c2nc(OC[C@@H]3CCCN3C)nc3c2CCN(c2c(C(F)(F)F)ccc4[nH]ncc24)C3)CC1

>  <pchembl_value_mean>  (201) 
6.46

>  <inchi>  (201) 
InChI=1S/C28H33F3N8O2/c1-3-24(40)37-11-13-38(14-12-37)26-19-8-10-39(25-20-15-32-35-22(20)7-6-21(25)28(29,30)31)16-23(19)33-27(34-26)41-17-18-5-4-9-36(18)2/h3,6-7,15,18H,1,4-5,8-14,16-17H2,2H3,(H,32,35)/t18-/m0/s1

$$$$

     RDKit          2D

 60 67  0  0  0  0  0  0  0  0999 V2000
    5.1731   -3.9415    0.0000 C   0  0  0  0  0  0  0  0  0  0  0  0
    3.8740   -4.6915    0.0000 C   0  0  0  0  0  0  0  0  0  0  0  0
    3.7172   -6.1833    0.0000 C   0  0  0  0  0  0  0  0  0  0  0  0
    2.2500   -6.4952    0.0000 N   0  0  0  0  0  0  0  0  0  0  0  0
    1.2463   -7.6099    0.0000 C   0  0  0  0  0  0  0  0  0  0  0  0
   -0.1240   -6.9998    0.0000 C   0  0  0  0  0  0  0  0  0  0  0  0
    0.0328   -5.5080    0.0000 C   0  0  0  0  0  0  0  0  0  0  0  0
    1.5000   -5.1962    0.0000 C   0  0  0  0  0  0  0  0  0  0  0  0
    0.7500   -3.8971    0.0000 C   0  0  0  0  0  0  0  0  0  0  0  0
    1.5000   -2.5981    0.0000 O   0  0  0  0  0  0  0  0  0  0  0  0
    0.7500   -1.2990    0.0000 C   0  0  0  0  0  0  0  0  0  0  0  0
    1.5000    0.0000    0.0000 N   0  0  0  0  0  0  0  0  0  0  0  0
    0.7500    1.2990    0.0000 C   0  0  0  0  0  0  0  0  0  0  0  0
    1.5000    2.5981    0.0000 N   0  0  0  0  0  0  0  0  0  0  0  0
    3.0000    2.5981    0.0000 C   0  0  0  0  0  0  0  0  0  0  0  0
    3.7500    3.8971    0.0000 C   0  0  0  0  0  0  0  0  0  0  0  0
    3.0000    5.1962    0.0000 N   0  0  0  0  0  0  0  0  0  0  0  0
    3.7500    6.4952    0.0000 C   0  0  0  0  0  0  0  0  0  0  0  0
    3.0000    7.7942    0.0000 O   0  0  0  0  0  0  0  0  0  0  0  0
    5.2500    6.4952    0.0000 C   0  0  0  0  0  0  0  0  0  0  0  0
    6.0000    7.7942    0.0000 C   0  0  0  0  0  0  0  0  0  0  0  0
    7.5000    7.7942    0.0000 C   0  0  0  0  0  0  0  0  0  0  0  0
    8.2500    6.4952    0.0000 C   0  0  0  0  0  0  0  0  0  0  0  0
    9.7500    6.4952    0.0000 C   0  0  0  0  0  0  0  0  0  0  0  0
   10.5000    5.1962    0.0000 C   0  0  0  0  0  0  0  0  0  0  0  0
    9.7500    3.8971    0.0000 C   0  0  0  0  0  0  0  0  0  0  0  0
   10.5000    2.5981    0.0000 C   0  0  0  0  0  0  0  0  0  0  0  0
   12.0000    2.5981    0.0000 N   0  0  0  0  0  0  0  0  0  0  0  0
   12.7500    1.2990    0.0000 C   0  0  0  0  0  0  0  0  0  0  0  0
   12.7500    3.8971    0.0000 C   0  0  0  0  0  0  0  0  0  0  0  0
   12.0000    5.1962    0.0000 C   0  0  0  0  0  0  0  0  0  0  0  0
   10.5000    7.7942    0.0000 C   0  0  0  0  0  0  0  0  0  0  0  0
   12.0000    7.7942    0.0000 C   0  0  0  0  0  0  0  0  0  0  0  0
    9.7500    9.0933    0.0000 C   0  0  0  0  0  0  0  0  0  0  0  0
    8.2500    9.0933    0.0000 N   0  0  0  0  0  0  0  0  0  0  0  0
    1.5000    5.1962    0.0000 C   0  0  0  0  0  0  0  0  0  0  0  0
    0.7500    3.8971    0.0000 C   0  0  0  0  0  0  0  0  0  0  0  0
   -0.7500    3.8971    0.0000 C   0  0  0  0  0  0  0  0  0  0  0  0
   -0.7500    1.2990    0.0000 C   0  0  0  0  0  0  0  0  0  0  0  0
   -1.5000    2.5981    0.0000 C   0  0  0  0  0  0  0  0  0  0  0  0
   -3.0000    2.5981    0.0000 C   0  0  0  0  0  0  0  0  0  0  0  0
   -3.5331    3.3054    0.0000 Cl  0  0  0  0  0  0  0  0  0  0  0  0
   -3.7500    1.2990    0.0000 C   0  0  0  0  0  0  0  0  0  0  0  0
   -5.2500    1.2990    0.0000 C   0  0  0  0  0  0  0  0  0  0  0  0
   -6.0000    0.0000    0.0000 N   0  0  0  0  0  0  0  0  0  0  0  0
   -7.5000    0.0000    0.0000 C   0  0  0  0  0  0  0  0  0  0  0  0
   -8.2500   -1.2990    0.0000 N   0  0  0  0  0  0  0  0  0  0  0  0
   -8.2500    1.2990    0.0000 C   0  0  0  0  0  0  0  0  0  0  0  0
   -7.5000    2.5981    0.0000 C   0  0  0  0  0  0  0  0  0  0  0  0
   -8.2500    3.8971    0.0000 C   0  0  0  0  0  0  0  0  0  0  0  0
   -6.0000    2.5981    0.0000 C   0  0  0  0  0  0  0  0  0  0  0  0
   -5.2500    3.8971    0.0000 C   0  0  0  0  0  0  0  0  0  0  0  0
   -4.5000    5.1962    0.0000 F   0  0  0  0  0  0  0  0  0  0  0  0
   -4.5426    3.3640    0.0000 F   0  0  0  0  0  0  0  0  0  0  0  0
   -6.5490    4.6471    0.0000 F   0  0  0  0  0  0  0  0  0  0  0  0
   -3.0000    0.0000    0.0000 C   0  0  0  0  0  0  0  0  0  0  0  0
   -3.7500   -1.2990    0.0000 F   0  0  0  0  0  0  0  0  0  0  0  0
   -1.5000    0.0000    0.0000 C   0  0  0  0  0  0  0  0  0  0  0  0
   -0.7500   -1.2990    0.0000 N   0  0  0  0  0  0  0  0  0  0  0  0
    2.5037   -4.0814    0.0000 C   0  0  0  0  0  0  0  0  0  0  0  0
  1  2  2  0
  2  3  1  0
  3  4  1  0
  4  5  1  0
  5  6  1  0
  6  7  1  0
  7  8  1  0
  8  9  1  6
  9 10  1  0
 10 11  1  0
 11 12  2  0
 12 13  1  0
 13 14  1  0
 14 15  1  0
 15 16  1  0
 16 17  1  0
 17 18  1  0
 18 19  2  0
 18 20  1  0
 20 21  2  0
 21 22  1  0
 22 23  2  0
 23 24  1  0
 24 25  1  0
 25 26  1  0
 26 27  1  0
 27 28  1  0
 28 29  1  0
 28 30  1  0
 30 31  1  0
 24 32  2  0
 32 33  1  0
 32 34  1  0
 34 35  2  0
 17 36  1  0
 36 37  1  0
 37 38  1  1
 13 39  2  0
 39 40  1  0
 40 41  2  0
 41 42  1  0
 41 43  1  0
 43 44  1  0
 44 45  2  0
 45 46  1  0
 46 47  1  0
 46 48  2  0
 48 49  1  0
 49 50  1  0
 49 51  2  0
 51 52  1  0
 52 53  1  0
 52 54  1  0
 52 55  1  0
 43 56  2  0
 56 57  1  0
 56 58  1  0
 58 59  2  0
  8 60  1  0
 60  2  1  0
  8  4  1  0
 59 11  1  0
 37 14  1  0
 58 39  1  0
 35 22  1  0
 51 44  1  0
 31 25  1  0
M  END
>  <molecule_chembl_id>  (202) 
CHEMBL5431314

>  <canonical_smiles>  (202) 
C=C1CN2CCC[C@@]2(COc2nc(N3CCN(C(=O)/C=C/c4cc(C5CCN(C)CC5)c(C)cn4)C[C@@H]3C)c3cc(Cl)c(-c4nc(N)cc(C)c4C(F)(F)F)c(F)c3n2)C1

>  <pchembl_value_mean>  (202) 
6.47

>  <inchi>  (202) 
InChI=1S/C44H50ClF4N9O2/c1-25-20-43(11-6-12-57(43)22-25)24-60-42-53-39-32(19-33(45)36(38(39)46)40-37(44(47,48)49)26(2)17-34(50)52-40)41(54-42)58-16-15-56(23-28(58)4)35(59)8-7-30-18-31(27(3)21-51-30)29-9-13-55(5)14-10-29/h7-8,17-19,21,28-29H,1,6,9-16,20,22-24H2,2-5H3,(H2,50,52)/b8-7+/t28-,43-/m0/s1

$$$$

     RDKit          2D

 41 46  0  0  0  0  0  0  0  0999 V2000
    4.8107  -10.9304    0.0000 C   0  0  0  0  0  0  0  0  0  0  0  0
    4.0607   -9.6313    0.0000 C   0  0  0  0  0  0  0  0  0  0  0  0
    4.8107   -8.3323    0.0000 C   0  0  0  0  0  0  0  0  0  0  0  0
    6.3107   -8.3323    0.0000 O   0  0  0  0  0  0  0  0  0  0  0  0
    4.0607   -7.0333    0.0000 N   0  0  0  0  0  0  0  0  0  0  0  0
    2.6118   -6.6450    0.0000 C   0  0  0  0  0  0  0  0  0  0  0  0
    3.0000   -5.1962    0.0000 C   0  0  0  0  0  0  0  0  0  0  0  0
    3.7500   -3.8971    0.0000 C   0  0  0  0  0  0  0  0  0  0  0  0
    3.0000   -2.5981    0.0000 C   0  0  0  0  0  0  0  0  0  0  0  0
    1.5000   -2.5981    0.0000 N   0  0  0  0  0  0  0  0  0  0  0  0
    0.7500   -1.2990    0.0000 C   0  0  0  0  0  0  0  0  0  0  0  0
    1.5000    0.0000    0.0000 N   0  0  0  0  0  0  0  0  0  0  0  0
    0.7500    1.2990    0.0000 C   0  0  0  0  0  0  0  0  0  0  0  0
    1.5000    2.5981    0.0000 O   0  0  0  0  0  0  0  0  0  0  0  0
    3.0000    2.5981    0.0000 C   0  0  0  0  0  0  0  0  0  0  0  0
    3.7500    3.8971    0.0000 C   0  0  0  0  0  0  0  0  0  0  0  0
    5.2500    3.8971    0.0000 N   0  0  0  0  0  0  0  0  0  0  0  0
    6.0000    5.1962    0.0000 C   0  0  0  0  0  0  0  0  0  0  0  0
    6.0000    2.5981    0.0000 C   0  0  0  0  0  0  0  0  0  0  0  0
   -0.7500    1.2990    0.0000 N   0  0  0  0  0  0  0  0  0  0  0  0
   -1.5000    0.0000    0.0000 C   0  0  0  0  0  0  0  0  0  0  0  0
   -3.0000    0.0000    0.0000 C   0  0  0  0  0  0  0  0  0  0  0  0
   -3.7500    1.2990    0.0000 F   0  0  0  0  0  0  0  0  0  0  0  0
   -3.7500   -1.2990    0.0000 C   0  0  0  0  0  0  0  0  0  0  0  0
   -5.2500   -1.2990    0.0000 C   0  0  0  0  0  0  0  0  0  0  0  0
   -6.0000    0.0000    0.0000 C   0  0  0  0  0  0  0  0  0  0  0  0
   -5.2500    1.2990    0.0000 C   0  0  0  0  0  0  0  0  0  0  0  0
   -7.5000    0.0000    0.0000 C   0  0  0  0  0  0  0  0  0  0  0  0
   -8.2500   -1.2990    0.0000 C   0  0  0  0  0  0  0  0  0  0  0  0
   -7.5000   -2.5981    0.0000 C   0  0  0  0  0  0  0  0  0  0  0  0
   -7.9635   -4.0247    0.0000 N   0  0  0  0  0  0  0  0  0  0  0  0
   -6.7500   -4.9063    0.0000 N   0  0  0  0  0  0  0  0  0  0  0  0
   -5.5365   -4.0247    0.0000 C   0  0  0  0  0  0  0  0  0  0  0  0
   -6.0000   -2.5981    0.0000 C   0  0  0  0  0  0  0  0  0  0  0  0
   -3.0000   -2.5981    0.0000 C   0  0  0  0  0  0  0  0  0  0  0  0
   -3.7500   -3.8971    0.0000 Cl  0  0  0  0  0  0  0  0  0  0  0  0
   -1.5000   -2.5981    0.0000 C   0  0  0  0  0  0  0  0  0  0  0  0
   -0.7500   -1.2990    0.0000 C   0  0  0  0  0  0  0  0  0  0  0  0
    0.7500   -3.8971    0.0000 C   0  0  0  0  0  0  0  0  0  0  0  0
    1.5000   -5.1962    0.0000 C   0  0  0  0  0  0  0  0  0  0  0  0
    4.4489   -5.5844    0.0000 C   0  0  0  0  0  0  0  0  0  0  0  0
  1  2  2  0
  2  3  1  0
  3  4  2  0
  3  5  1  0
  5  6  1  0
  6  7  1  0
  7  8  1  0
  8  9  1  0
  9 10  1  0
 10 11  1  0
 11 12  2  0
 12 13  1  0
 13 14  1  0
 14 15  1  0
 15 16  1  0
 16 17  1  0
 17 18  1  0
 17 19  1  0
 13 20  2  0
 20 21  1  0
 21 22  2  0
 22 23  1  0
 22 24  1  0
 24 25  1  0
 25 26  2  0
 26 27  1  0
 26 28  1  0
 28 29  2  0
 29 30  1  0
 30 31  1  0
 31 32  1  0
 32 33  2  0
 33 34  1  0
 24 35  2  0
 35 36  1  0
 35 37  1  0
 37 38  2  0
 10 39  1  0
 39 40  1  0
  7 41  1  0
 41  5  1  0
 40  7  1  0
 38 11  1  0
 38 21  1  0
 34 25  1  0
 34 30  2  0
M  END
>  <molecule_chembl_id>  (203) 
CHEMBL5191000

>  <canonical_smiles>  (203) 
C=CC(=O)N1CC2(CCN(c3nc(OCCN(C)C)nc4c(F)c(-c5c(C)ccc6[nH]ncc56)c(Cl)cc34)CC2)C1

>  <pchembl_value_mean>  (203) 
6.47

>  <inchi>  (203) 
InChI=1S/C30H33ClFN7O2/c1-5-23(40)39-16-30(17-39)8-10-38(11-9-30)28-19-14-21(31)25(24-18(2)6-7-22-20(24)15-33-36-22)26(32)27(19)34-29(35-28)41-13-12-37(3)4/h5-7,14-15H,1,8-13,16-17H2,2-4H3,(H,33,36)

$$$$

     RDKit          2D

 30 34  0  0  0  0  0  0  0  0999 V2000
    5.2500   -1.2990    0.0000 C   0  0  0  0  0  0  0  0  0  0  0  0
    3.7500   -1.2990    0.0000 C   0  0  0  0  0  0  0  0  0  0  0  0
    3.0000    0.0000    0.0000 C   0  0  0  0  0  0  0  0  0  0  0  0
    3.7500    1.2990    0.0000 O   0  0  0  0  0  0  0  0  0  0  0  0
    1.5000    0.0000    0.0000 N   0  0  0  0  0  0  0  0  0  0  0  0
    0.7500   -1.2990    0.0000 C   0  0  0  0  0  0  0  0  0  0  0  0
   -0.7500   -1.2990    0.0000 C   0  0  0  0  0  0  0  0  0  0  0  0
   -1.5000    0.0000    0.0000 N   0  0  0  0  0  0  0  0  0  0  0  0
   -2.9832   -0.2236    0.0000 C   0  0  0  0  0  0  0  0  0  0  0  0
   -4.0828    0.7967    0.0000 C   0  0  0  0  0  0  0  0  0  0  0  0
   -5.4343    0.1459    0.0000 C   0  0  0  0  0  0  0  0  0  0  0  0
   -6.6736    0.9909    0.0000 C   0  0  0  0  0  0  0  0  0  0  0  0
   -6.5615    2.4867    0.0000 C   0  0  0  0  0  0  0  0  0  0  0  0
   -7.8009    3.3316    0.0000 C   0  0  0  0  0  0  0  0  0  0  0  0
   -7.6888    4.8274    0.0000 C   0  0  0  0  0  0  0  0  0  0  0  0
   -6.3374    5.4783    0.0000 C   0  0  0  0  0  0  0  0  0  0  0  0
   -8.9282    5.6724    0.0000 C   0  0  0  0  0  0  0  0  0  0  0  0
  -10.2796    5.0216    0.0000 C   0  0  0  0  0  0  0  0  0  0  0  0
  -10.3917    3.5258    0.0000 C   0  0  0  0  0  0  0  0  0  0  0  0
  -11.5783    2.6082    0.0000 N   0  0  0  0  0  0  0  0  0  0  0  0
  -11.0723    1.1961    0.0000 N   0  0  0  0  0  0  0  0  0  0  0  0
   -9.5730    1.2410    0.0000 C   0  0  0  0  0  0  0  0  0  0  0  0
   -9.1524    2.6808    0.0000 C   0  0  0  0  0  0  0  0  0  0  0  0
   -5.2101    3.1375    0.0000 C   0  0  0  0  0  0  0  0  0  0  0  0
   -5.0980    4.6333    0.0000 Cl  0  0  0  0  0  0  0  0  0  0  0  0
   -3.9707    2.2925    0.0000 C   0  0  0  0  0  0  0  0  0  0  0  0
   -2.7314    3.1375    0.0000 O   0  0  0  0  0  0  0  0  0  0  0  0
   -1.2980    2.6953    0.0000 C   0  0  0  0  0  0  0  0  0  0  0  0
   -0.7500    1.2990    0.0000 C   0  0  0  0  0  0  0  0  0  0  0  0
    0.7500    1.2990    0.0000 C   0  0  0  0  0  0  0  0  0  0  0  0
  1  2  2  0
  2  3  1  0
  3  4  2  0
  3  5  1  0
  5  6  1  0
  6  7  1  0
  7  8  1  0
  8  9  1  0
  9 10  1  0
 10 11  2  0
 11 12  1  0
 12 13  2  0
 13 14  1  0
 14 15  2  0
 15 16  1  0
 15 17  1  0
 17 18  2  0
 18 19  1  0
 19 20  1  0
 20 21  1  0
 21 22  2  0
 22 23  1  0
 13 24  1  0
 24 25  1  0
 24 26  2  0
 26 27  1  0
 27 28  1  0
 29 28  1  1
 29 30  1  0
 30  5  1  0
 29  8  1  0
 26 10  1  0
 23 14  1  0
 23 19  2  0
M  END
>  <molecule_chembl_id>  (204) 
CHEMBL5417255

>  <canonical_smiles>  (204) 
C=CC(=O)N1CCN2Cc3ccc(-c4c(C)ccc5[nH]ncc45)c(Cl)c3OC[C@H]2C1

>  <pchembl_value_mean>  (204) 
6.48

>  <inchi>  (204) 
InChI=1S/C23H23ClN4O2/c1-3-20(29)28-9-8-27-11-15-5-6-17(22(24)23(15)30-13-16(27)12-28)21-14(2)4-7-19-18(21)10-25-26-19/h3-7,10,16H,1,8-9,11-13H2,2H3,(H,25,26)/t16-/m1/s1

$$$$

     RDKit          2D

 38 42  0  0  0  0  0  0  0  0999 V2000
  -10.2078   -0.4760    0.0000 C   0  0  0  0  0  0  0  0  0  0  0  0
   -8.9943   -1.3576    0.0000 C   0  0  0  0  0  0  0  0  0  0  0  0
   -9.1510   -2.8494    0.0000 C   0  0  0  0  0  0  0  0  0  0  0  0
  -10.5214   -3.4595    0.0000 O   0  0  0  0  0  0  0  0  0  0  0  0
   -7.9375   -3.7311    0.0000 N   0  0  0  0  0  0  0  0  0  0  0  0
   -6.4560   -3.4965    0.0000 C   0  0  0  0  0  0  0  0  0  0  0  0
   -6.2213   -4.9780    0.0000 C   0  0  0  0  0  0  0  0  0  0  0  0
   -5.0078   -5.8597    0.0000 N   0  0  0  0  0  0  0  0  0  0  0  0
   -3.6375   -5.2496    0.0000 C   0  0  0  0  0  0  0  0  0  0  0  0
   -3.4807   -3.7578    0.0000 O   0  0  0  0  0  0  0  0  0  0  0  0
   -2.4240   -6.1312    0.0000 C   0  0  0  0  0  0  0  0  0  0  0  0
   -1.0537   -5.5211    0.0000 N   0  0  0  0  0  0  0  0  0  0  0  0
   -0.7418   -4.0539    0.0000 C   0  0  0  0  0  0  0  0  0  0  0  0
   -1.7455   -2.9392    0.0000 C   0  0  0  0  0  0  0  0  0  0  0  0
    0.7500   -3.8971    0.0000 C   0  0  0  0  0  0  0  0  0  0  0  0
    1.5000   -2.5981    0.0000 C   0  0  0  0  0  0  0  0  0  0  0  0
    3.0000   -2.5981    0.0000 O   0  0  0  0  0  0  0  0  0  0  0  0
    0.7500   -1.2990    0.0000 N   0  0  0  0  0  0  0  0  0  0  0  0
    1.5000    0.0000    0.0000 C   0  0  0  0  0  0  0  0  0  0  0  0
    0.7500    1.2990    0.0000 C   0  0  0  0  0  0  0  0  0  0  0  0
   -0.7500    1.2990    0.0000 C   0  0  0  0  0  0  0  0  0  0  0  0
   -1.5000    0.0000    0.0000 C   0  0  0  0  0  0  0  0  0  0  0  0
   -3.0000    0.0000    0.0000 C   0  0  0  0  0  0  0  0  0  0  0  0
   -3.7500    1.2990    0.0000 C   0  0  0  0  0  0  0  0  0  0  0  0
   -3.0000    2.5981    0.0000 C   0  0  0  0  0  0  0  0  0  0  0  0
   -1.5000    2.5981    0.0000 C   0  0  0  0  0  0  0  0  0  0  0  0
   -0.7500    3.8971    0.0000 O   0  0  0  0  0  0  0  0  0  0  0  0
   -1.5000    5.1962    0.0000 C   0  0  0  0  0  0  0  0  0  0  0  0
   -0.7500   -1.2990    0.0000 C   0  0  0  0  0  0  0  0  0  0  0  0
    1.3601   -5.2674    0.0000 C   0  0  0  0  0  0  0  0  0  0  0  0
    2.7867   -5.7310    0.0000 C   0  0  0  0  0  0  0  0  0  0  0  0
    3.0986   -7.1982    0.0000 C   0  0  0  0  0  0  0  0  0  0  0  0
    4.5251   -7.6617    0.0000 Cl  0  0  0  0  0  0  0  0  0  0  0  0
    1.9838   -8.2019    0.0000 C   0  0  0  0  0  0  0  0  0  0  0  0
    0.5573   -7.7383    0.0000 C   0  0  0  0  0  0  0  0  0  0  0  0
   -0.5575   -8.7420    0.0000 C   0  0  0  0  0  0  0  0  0  0  0  0
    0.2454   -6.2711    0.0000 C   0  0  0  0  0  0  0  0  0  0  0  0
   -7.7029   -5.2126    0.0000 C   0  0  0  0  0  0  0  0  0  0  0  0
  1  2  2  0
  2  3  1  0
  3  4  2  0
  3  5  1  0
  5  6  1  0
  6  7  1  0
  7  8  1  0
  8  9  1  0
  9 10  2  0
  9 11  1  0
 11 12  1  0
 12 13  1  0
 13 14  1  0
 13 15  2  0
 15 16  1  0
 16 17  2  0
 16 18  1  0
 18 19  1  0
 19 20  1  0
 20 21  1  0
 21 22  2  0
 22 23  1  0
 23 24  2  0
 24 25  1  0
 25 26  2  0
 26 27  1  0
 27 28  1  0
 22 29  1  0
 15 30  1  0
 30 31  2  0
 31 32  1  0
 32 33  1  0
 32 34  2  0
 34 35  1  0
 35 36  1  0
 35 37  2  0
  7 38  1  0
 38  5  1  0
 37 12  1  0
 29 18  1  0
 37 30  1  0
 26 21  1  0
M  END
>  <molecule_chembl_id>  (205) 
CHEMBL4591653

>  <canonical_smiles>  (205) 
C=CC(=O)N1CC(NC(=O)Cn2c(C)c(C(=O)N3CCc4c(cccc4OC)C3)c3cc(Cl)cc(C)c32)C1

>  <pchembl_value_mean>  (205) 
6.495

>  <inchi>  (205) 
InChI=1S/C29H31ClN4O4/c1-5-26(36)33-14-21(15-33)31-25(35)16-34-18(3)27(23-12-20(30)11-17(2)28(23)34)29(37)32-10-9-22-19(13-32)7-6-8-24(22)38-4/h5-8,11-12,21H,1,9-10,13-16H2,2-4H3,(H,31,35)

$$$$

     RDKit          2D

 38 42  0  0  0  0  0  0  0  0999 V2000
    3.7500   -9.0933    0.0000 C   0  0  0  0  0  0  0  0  0  0  0  0
    3.0000   -7.7942    0.0000 C   0  0  0  0  0  0  0  0  0  0  0  0
    3.7500   -6.4952    0.0000 C   0  0  0  0  0  0  0  0  0  0  0  0
    5.2500   -6.4952    0.0000 O   0  0  0  0  0  0  0  0  0  0  0  0
    3.0000   -5.1962    0.0000 N   0  0  0  0  0  0  0  0  0  0  0  0
    1.5000   -5.1962    0.0000 C   0  0  0  0  0  0  0  0  0  0  0  0
    0.7500   -3.8971    0.0000 C   0  0  0  0  0  0  0  0  0  0  0  0
    1.5000   -2.5981    0.0000 N   0  0  0  0  0  0  0  0  0  0  0  0
    0.7500   -1.2990    0.0000 C   0  0  0  0  0  0  0  0  0  0  0  0
    1.5000    0.0000    0.0000 N   0  0  0  0  0  0  0  0  0  0  0  0
    0.7500    1.2990    0.0000 C   0  0  0  0  0  0  0  0  0  0  0  0
    1.5000    2.5981    0.0000 O   0  0  0  0  0  0  0  0  0  0  0  0
    3.0000    2.5981    0.0000 C   0  0  0  0  0  0  0  0  0  0  0  0
    3.7500    3.8971    0.0000 C   0  0  0  0  0  0  0  0  0  0  0  0
    5.2500    3.8971    0.0000 C   0  0  0  0  0  0  0  0  0  0  0  0
    6.0000    5.1962    0.0000 N   0  0  0  0  0  0  0  0  0  0  0  0
    7.5000    5.1962    0.0000 C   0  0  0  0  0  0  0  0  0  0  0  0
    5.2500    6.4952    0.0000 C   0  0  0  0  0  0  0  0  0  0  0  0
   -0.7500    1.2990    0.0000 N   0  0  0  0  0  0  0  0  0  0  0  0
   -1.5000    0.0000    0.0000 C   0  0  0  0  0  0  0  0  0  0  0  0
   -0.7500   -1.2990    0.0000 C   0  0  0  0  0  0  0  0  0  0  0  0
   -1.5000   -2.5981    0.0000 C   0  0  0  0  0  0  0  0  0  0  0  0
   -3.0000   -2.5981    0.0000 C   0  0  0  0  0  0  0  0  0  0  0  0
   -3.7500   -3.8971    0.0000 C   0  0  0  0  0  0  0  0  0  0  0  0
   -3.7500   -1.2990    0.0000 C   0  0  0  0  0  0  0  0  0  0  0  0
   -5.2500   -1.2990    0.0000 C   0  0  0  0  0  0  0  0  0  0  0  0
   -6.0000   -2.5981    0.0000 C   0  0  0  0  0  0  0  0  0  0  0  0
   -5.2500   -3.8971    0.0000 C   0  0  0  0  0  0  0  0  0  0  0  0
   -7.5000   -2.5981    0.0000 C   0  0  0  0  0  0  0  0  0  0  0  0
   -8.2500   -1.2990    0.0000 C   0  0  0  0  0  0  0  0  0  0  0  0
   -7.5000   -0.0000    0.0000 C   0  0  0  0  0  0  0  0  0  0  0  0
   -7.9635    1.4266    0.0000 N   0  0  0  0  0  0  0  0  0  0  0  0
   -6.7500    2.3083    0.0000 N   0  0  0  0  0  0  0  0  0  0  0  0
   -5.5365    1.4266    0.0000 C   0  0  0  0  0  0  0  0  0  0  0  0
   -6.0000    0.0000    0.0000 C   0  0  0  0  0  0  0  0  0  0  0  0
   -3.0000    0.0000    0.0000 C   0  0  0  0  0  0  0  0  0  0  0  0
    3.0000   -2.5981    0.0000 C   0  0  0  0  0  0  0  0  0  0  0  0
    3.7500   -3.8971    0.0000 C   0  0  0  0  0  0  0  0  0  0  0  0
  1  2  2  0
  2  3  1  0
  3  4  2  0
  3  5  1  0
  5  6  1  0
  6  7  1  0
  7  8  1  0
  8  9  1  0
  9 10  2  0
 10 11  1  0
 11 12  1  0
 12 13  1  0
 13 14  1  0
 14 15  1  0
 15 16  1  0
 16 17  1  0
 16 18  1  0
 11 19  2  0
 19 20  1  0
 20 21  2  0
 21 22  1  0
 22 23  1  0
 23 24  1  1
 23 25  1  0
 25 26  1  6
 26 27  2  0
 27 28  1  0
 27 29  1  0
 29 30  2  0
 30 31  1  0
 31 32  1  0
 32 33  1  0
 33 34  2  0
 34 35  1  0
 25 36  1  0
  8 37  1  0
 37 38  1  0
 38  5  1  0
 21  9  1  0
 35 26  1  0
 36 20  1  0
 35 31  2  0
M  END
>  <molecule_chembl_id>  (206) 
CHEMBL4466335

>  <canonical_smiles>  (206) 
C=CC(=O)N1CCN(c2nc(OCCCN(C)C)nc3c2C[C@@H](C)[C@H](c2c(C)ccc4[nH]ncc24)C3)CC1

>  <pchembl_value_mean>  (206) 
6.5

>  <inchi>  (206) 
InChI=1S/C29H39N7O2/c1-6-26(37)35-11-13-36(14-12-35)28-22-16-20(3)21(27-19(2)8-9-24-23(27)18-30-33-24)17-25(22)31-29(32-28)38-15-7-10-34(4)5/h6,8-9,18,20-21H,1,7,10-17H2,2-5H3,(H,30,33)/t20-,21-/m1/s1

$$$$

     RDKit          2D

 44 51  0  0  0  0  0  0  0  0999 V2000
    3.7500   -1.2990    0.0000 C   0  0  0  0  0  0  0  0  0  0  0  0
    3.0000    0.0000    0.0000 C   0  0  0  0  0  0  0  0  0  0  0  0
    1.5000    0.0000    0.0000 C   0  0  0  0  0  0  0  0  0  0  0  0
    0.7500   -1.2990    0.0000 C   0  0  0  0  0  0  0  0  0  0  0  0
    1.5000   -2.5981    0.0000 F   0  0  0  0  0  0  0  0  0  0  0  0
   -0.7500   -1.2990    0.0000 C   0  0  0  0  0  0  0  0  0  0  0  0
   -1.5000    0.0000    0.0000 C   0  0  0  0  0  0  0  0  0  0  0  0
   -0.7500    1.2990    0.0000 C   0  0  0  0  0  0  0  0  0  0  0  0
   -1.5000    2.5981    0.0000 C   0  0  0  0  0  0  0  0  0  0  0  0
   -0.7500    3.8971    0.0000 C   0  0  0  0  0  0  0  0  0  0  0  0
   -1.5000    5.1962    0.0000 O   0  0  0  0  0  0  0  0  0  0  0  0
    0.7500    3.8971    0.0000 C   0  0  0  0  0  0  0  0  0  0  0  0
    1.5000    2.5981    0.0000 C   0  0  0  0  0  0  0  0  0  0  0  0
    3.0000    2.5981    0.0000 C   0  0  0  0  0  0  0  0  0  0  0  0
    3.7500    1.2990    0.0000 N   0  0  0  0  0  0  0  0  0  0  0  0
    5.2500    1.2990    0.0000 C   0  0  0  0  0  0  0  0  0  0  0  0
    6.0000    2.5981    0.0000 C   0  0  0  0  0  0  0  0  0  0  0  0
    7.5000    2.5981    0.0000 C   0  0  0  0  0  0  0  0  0  0  0  0
    8.2500    1.2990    0.0000 N   0  0  0  0  0  0  0  0  0  0  0  0
    9.7500    1.2990    0.0000 C   0  0  0  0  0  0  0  0  0  0  0  0
   10.5000   -0.0000    0.0000 C   0  0  0  0  0  0  0  0  0  0  0  0
   10.8119   -1.4672    0.0000 C   0  0  0  0  0  0  0  0  0  0  0  0
    9.5128   -2.2172    0.0000 C   0  0  0  0  0  0  0  0  0  0  0  0
    8.3981   -1.2135    0.0000 C   0  0  0  0  0  0  0  0  0  0  0  0
    7.5000   -0.0000    0.0000 C   0  0  0  0  0  0  0  0  0  0  0  0
    9.0082    0.1568    0.0000 N   0  0  0  0  0  0  0  0  0  0  0  0
    8.2500    3.8971    0.0000 C   0  0  0  0  0  0  0  0  0  0  0  0
    7.5000    5.1962    0.0000 C   0  0  0  0  0  0  0  0  0  0  0  0
    8.2500    6.4952    0.0000 C   0  0  0  0  0  0  0  0  0  0  0  0
    9.0000    7.7942    0.0000 C   0  0  0  0  0  0  0  0  0  0  0  0
    9.7500    9.0933    0.0000 C   0  0  0  0  0  0  0  0  0  0  0  0
    8.2828    9.4051    0.0000 C   0  0  0  0  0  0  0  0  0  0  0  0
    8.1260   10.8969    0.0000 C   0  0  0  0  0  0  0  0  0  0  0  0
    9.4963   11.5070    0.0000 C   0  0  0  0  0  0  0  0  0  0  0  0
   10.5000   10.3923    0.0000 N   0  0  0  0  0  0  0  0  0  0  0  0
   11.9672   10.0804    0.0000 C   0  0  0  0  0  0  0  0  0  0  0  0
   12.1240    8.5887    0.0000 C   0  0  0  0  0  0  0  0  0  0  0  0
   13.4231    7.8387    0.0000 F   0  0  0  0  0  0  0  0  0  0  0  0
   10.7537    7.9785    0.0000 C   0  0  0  0  0  0  0  0  0  0  0  0
    6.0000    5.1962    0.0000 N   0  0  0  0  0  0  0  0  0  0  0  0
    5.2500    3.8971    0.0000 C   0  0  0  0  0  0  0  0  0  0  0  0
    3.7500    3.8971    0.0000 C   0  0  0  0  0  0  0  0  0  0  0  0
    3.0000    5.1962    0.0000 F   0  0  0  0  0  0  0  0  0  0  0  0
    0.7500    1.2990    0.0000 C   0  0  0  0  0  0  0  0  0  0  0  0
  1  2  1  0
  2  3  1  0
  3  4  2  0
  4  5  1  0
  4  6  1  0
  6  7  2  0
  7  8  1  0
  8  9  2  0
  9 10  1  0
 10 11  1  0
 10 12  2  0
 12 13  1  0
 13 14  1  0
 14 15  2  0
 15 16  1  0
 16 17  2  0
 17 18  1  0
 18 19  1  0
 19 20  1  0
 20 21  1  0
 21 22  1  0
 22 23  1  0
 23 24  1  0
 24 25  1  0
 24 26  1  0
 18 27  2  0
 27 28  1  0
 28 29  1  0
 29 30  3  0
 31 30  1  1
 31 32  1  0
 32 33  1  0
 33 34  1  0
 34 35  1  0
 35 36  1  0
 36 37  1  0
 37 38  1  6
 37 39  1  0
 28 40  2  0
 40 41  1  0
 41 42  2  0
 42 43  1  0
 13 44  2  0
 44  3  1  0
 44  8  1  0
 42 14  1  0
 41 17  1  0
 25 19  1  0
 35 31  1  0
 26 21  1  0
 39 31  1  0
M  END
>  <molecule_chembl_id>  (207) 
CHEMBL5430597

>  <canonical_smiles>  (207) 
CCc1c(F)ccc2cc(O)cc(-c3ncc4c(N5CC6CCC(C5)N6)cc(C#C[C@@]56CCCN5C[C@H](F)C6)nc4c3F)c12

>  <pchembl_value_mean>  (207) 
6.52

>  <inchi>  (207) 
InChI=1S/C35H34F3N5O/c1-2-26-29(37)7-4-20-12-25(44)14-27(31(20)26)33-32(38)34-28(16-39-33)30(42-18-23-5-6-24(19-42)40-23)13-22(41-34)8-10-35-9-3-11-43(35)17-21(36)15-35/h4,7,12-14,16,21,23-24,40,44H,2-3,5-6,9,11,15,17-19H2,1H3/t21-,23?,24?,35-/m1/s1

$$$$

     RDKit          2D

 39 44  0  0  0  0  0  0  0  0999 V2000
  -10.2078   -0.4760    0.0000 C   0  0  0  0  0  0  0  0  0  0  0  0
   -8.9943   -1.3576    0.0000 C   0  0  0  0  0  0  0  0  0  0  0  0
   -9.1510   -2.8494    0.0000 C   0  0  0  0  0  0  0  0  0  0  0  0
  -10.5214   -3.4595    0.0000 O   0  0  0  0  0  0  0  0  0  0  0  0
   -7.9375   -3.7311    0.0000 N   0  0  0  0  0  0  0  0  0  0  0  0
   -6.4560   -3.4965    0.0000 C   0  0  0  0  0  0  0  0  0  0  0  0
   -6.2213   -4.9780    0.0000 C   0  0  0  0  0  0  0  0  0  0  0  0
   -5.0078   -5.8597    0.0000 N   0  0  0  0  0  0  0  0  0  0  0  0
   -3.6375   -5.2496    0.0000 C   0  0  0  0  0  0  0  0  0  0  0  0
   -3.4807   -3.7578    0.0000 O   0  0  0  0  0  0  0  0  0  0  0  0
   -2.4240   -6.1312    0.0000 C   0  0  0  0  0  0  0  0  0  0  0  0
   -1.0537   -5.5211    0.0000 N   0  0  0  0  0  0  0  0  0  0  0  0
   -0.7418   -4.0539    0.0000 C   0  0  0  0  0  0  0  0  0  0  0  0
   -1.7455   -2.9392    0.0000 C   0  0  0  0  0  0  0  0  0  0  0  0
   -3.1721   -2.4757    0.0000 C   0  0  0  0  0  0  0  0  0  0  0  0
   -2.0573   -1.4720    0.0000 C   0  0  0  0  0  0  0  0  0  0  0  0
    0.7500   -3.8971    0.0000 C   0  0  0  0  0  0  0  0  0  0  0  0
    1.5000   -2.5981    0.0000 C   0  0  0  0  0  0  0  0  0  0  0  0
    3.0000   -2.5981    0.0000 O   0  0  0  0  0  0  0  0  0  0  0  0
    0.7500   -1.2990    0.0000 N   0  0  0  0  0  0  0  0  0  0  0  0
    1.5000    0.0000    0.0000 C   0  0  0  0  0  0  0  0  0  0  0  0
    0.7500    1.2990    0.0000 C   0  0  0  0  0  0  0  0  0  0  0  0
   -0.7500    1.2990    0.0000 C   0  0  0  0  0  0  0  0  0  0  0  0
   -1.5000    0.0000    0.0000 C   0  0  0  0  0  0  0  0  0  0  0  0
   -3.0000    0.0000    0.0000 C   0  0  0  0  0  0  0  0  0  0  0  0
   -3.7500    1.2990    0.0000 C   0  0  0  0  0  0  0  0  0  0  0  0
   -3.0000    2.5981    0.0000 C   0  0  0  0  0  0  0  0  0  0  0  0
   -1.5000    2.5981    0.0000 C   0  0  0  0  0  0  0  0  0  0  0  0
   -0.7500    3.8971    0.0000 O   0  0  0  0  0  0  0  0  0  0  0  0
   -1.5000    5.1962    0.0000 C   0  0  0  0  0  0  0  0  0  0  0  0
   -0.7500   -1.2990    0.0000 C   0  0  0  0  0  0  0  0  0  0  0  0
    1.3601   -5.2674    0.0000 C   0  0  0  0  0  0  0  0  0  0  0  0
    2.7867   -5.7310    0.0000 C   0  0  0  0  0  0  0  0  0  0  0  0
    3.0986   -7.1982    0.0000 C   0  0  0  0  0  0  0  0  0  0  0  0
    4.5251   -7.6617    0.0000 Br  0  0  0  0  0  0  0  0  0  0  0  0
    1.9838   -8.2019    0.0000 C   0  0  0  0  0  0  0  0  0  0  0  0
    0.5573   -7.7383    0.0000 C   0  0  0  0  0  0  0  0  0  0  0  0
    0.2454   -6.2711    0.0000 C   0  0  0  0  0  0  0  0  0  0  0  0
   -7.7029   -5.2126    0.0000 C   0  0  0  0  0  0  0  0  0  0  0  0
  1  2  2  0
  2  3  1  0
  3  4  2  0
  3  5  1  0
  5  6  1  0
  6  7  1  0
  7  8  1  0
  8  9  1  0
  9 10  2  0
  9 11  1  0
 11 12  1  0
 12 13  1  0
 13 14  1  0
 14 15  1  0
 15 16  1  0
 13 17  2  0
 17 18  1  0
 18 19  2  0
 18 20  1  0
 20 21  1  0
 21 22  1  0
 22 23  1  0
 23 24  2  0
 24 25  1  0
 25 26  2  0
 26 27  1  0
 27 28  2  0
 28 29  1  0
 29 30  1  0
 24 31  1  0
 17 32  1  0
 32 33  2  0
 33 34  1  0
 34 35  1  0
 34 36  2  0
 36 37  1  0
 37 38  2  0
  7 39  1  0
 39  5  1  0
 38 12  1  0
 16 14  1  0
 31 20  1  0
 38 32  1  0
 28 23  1  0
M  END
>  <molecule_chembl_id>  (208) 
CHEMBL4579956

>  <canonical_smiles>  (208) 
C=CC(=O)N1CC(NC(=O)Cn2c(C3CC3)c(C(=O)N3CCc4c(cccc4OC)C3)c3cc(Br)ccc32)C1

>  <pchembl_value_mean>  (208) 
6.54

>  <inchi>  (208) 
InChI=1S/C30H31BrN4O4/c1-3-27(37)34-15-21(16-34)32-26(36)17-35-24-10-9-20(31)13-23(24)28(29(35)18-7-8-18)30(38)33-12-11-22-19(14-33)5-4-6-25(22)39-2/h3-6,9-10,13,18,21H,1,7-8,11-12,14-17H2,2H3,(H,32,36)

$$$$

     RDKit          2D

155164  0  0  0  0  0  0  0  0999 V2000
   15.4792   -0.1915    0.0000 C   0  0  0  0  0  0  0  0  0  0  0  0
   13.9792   -0.1915    0.0000 C   0  0  0  0  0  0  0  0  0  0  0  0
   13.8112   -1.6821    0.0000 N   0  0  0  0  0  0  0  0  0  0  0  0
   13.3158   -3.0979    0.0000 C   0  0  0  0  0  0  0  0  0  0  0  0
   14.6672   -3.7487    0.0000 O   0  0  0  0  0  0  0  0  0  0  0  0
   12.5177   -4.3680    0.0000 C   0  0  0  0  0  0  0  0  0  0  0  0
   13.6905   -5.3032    0.0000 C   0  0  0  0  0  0  0  0  0  0  0  0
   13.4669   -6.7865    0.0000 C   0  0  0  0  0  0  0  0  0  0  0  0
   12.0706   -7.3345    0.0000 C   0  0  0  0  0  0  0  0  0  0  0  0
   11.8471   -8.8177    0.0000 C   0  0  0  0  0  0  0  0  0  0  0  0
   13.0198   -9.7530    0.0000 C   0  0  0  0  0  0  0  0  0  0  0  0
   14.4161   -9.2050    0.0000 C   0  0  0  0  0  0  0  0  0  0  0  0
   14.6397   -7.7217    0.0000 C   0  0  0  0  0  0  0  0  0  0  0  0
   11.4571   -5.4287    0.0000 N   0  0  0  0  0  0  0  0  0  0  0  0
   10.1870   -6.2267    0.0000 C   0  0  0  0  0  0  0  0  0  0  0  0
   10.8378   -7.5782    0.0000 O   0  0  0  0  0  0  0  0  0  0  0  0
    8.7712   -6.7221    0.0000 C   0  0  0  0  0  0  0  0  0  0  0  0
    7.2806   -6.8901    0.0000 C   0  0  0  0  0  0  0  0  0  0  0  0
    5.7900   -6.7221    0.0000 C   0  0  0  0  0  0  0  0  0  0  0  0
    4.3742   -6.2267    0.0000 C   0  0  0  0  0  0  0  0  0  0  0  0
    3.1041   -5.4287    0.0000 C   0  0  0  0  0  0  0  0  0  0  0  0
    2.0435   -4.3680    0.0000 N   0  0  0  0  0  0  0  0  0  0  0  0
    1.2454   -3.0979    0.0000 C   0  0  0  0  0  0  0  0  0  0  0  0
   -0.1060   -3.7487    0.0000 O   0  0  0  0  0  0  0  0  0  0  0  0
    0.7500   -1.2990    0.0000 C   0  0  0  0  0  0  0  0  0  0  0  0
    1.5000    0.0000    0.0000 C   0  0  0  0  0  0  0  0  0  0  0  0
    0.7500    1.2990    0.0000 C   0  0  0  0  0  0  0  0  0  0  0  0
   -0.7500    1.2990    0.0000 C   0  0  0  0  0  0  0  0  0  0  0  0
   -1.5000    0.0000    0.0000 C   0  0  0  0  0  0  0  0  0  0  0  0
   -0.7500   -1.2990    0.0000 C   0  0  0  0  0  0  0  0  0  0  0  0
   -2.3002   -1.3623    0.0000 C   0  0  0  0  0  0  0  0  0  0  0  0
   -3.7181    0.3198    0.0000 O   0  0  0  0  0  0  0  0  0  0  0  0
   -3.2158   -2.3372    0.0000 N   0  0  0  0  0  0  0  0  0  0  0  0
   -3.8819   -3.4970    0.0000 C   0  0  0  0  0  0  0  0  0  0  0  0
   -5.9040   -2.6302    0.0000 C   0  0  0  0  0  0  0  0  0  0  0  0
   -6.0815   -1.1408    0.0000 C   0  0  0  0  0  0  0  0  0  0  0  0
   -4.8803   -0.2423    0.0000 C   0  0  0  0  0  0  0  0  0  0  0  0
   -5.0578    1.2471    0.0000 C   0  0  0  0  0  0  0  0  0  0  0  0
   -6.4365    1.8381    0.0000 C   0  0  0  0  0  0  0  0  0  0  0  0
   -6.6140    3.3276    0.0000 C   0  0  0  0  0  0  0  0  0  0  0  0
   -7.9927    3.9186    0.0000 C   0  0  0  0  0  0  0  0  0  0  0  0
   -9.1939    3.0201    0.0000 C   0  0  0  0  0  0  0  0  0  0  0  0
   -9.0163    1.5307    0.0000 C   0  0  0  0  0  0  0  0  0  0  0  0
   -7.6377    0.9397    0.0000 C   0  0  0  0  0  0  0  0  0  0  0  0
   -7.4602   -0.5498    0.0000 C   0  0  0  0  0  0  0  0  0  0  0  0
   -4.2626   -4.7792    0.0000 C   0  0  0  0  0  0  0  0  0  0  0  0
   -6.4300   -4.4021    0.0000 O   0  0  0  0  0  0  0  0  0  0  0  0
   -4.3373   -6.1146    0.0000 N   0  0  0  0  0  0  0  0  0  0  0  0
   -4.1021   -7.4312    0.0000 C   0  0  0  0  0  0  0  0  0  0  0  0
   -6.2082   -8.0669    0.0000 C   0  0  0  0  0  0  0  0  0  0  0  0
   -7.3016   -7.0400    0.0000 O   0  0  0  0  0  0  0  0  0  0  0  0
   -3.5696   -8.6581    0.0000 C   0  0  0  0  0  0  0  0  0  0  0  0
   -5.4723   -9.7624    0.0000 O   0  0  0  0  0  0  0  0  0  0  0  0
   -2.7685   -9.7291    0.0000 N   0  0  0  0  0  0  0  0  0  0  0  0
   -1.7420  -10.5864    0.0000 C   0  0  0  0  0  0  0  0  0  0  0  0
   -2.9467  -12.4273    0.0000 C   0  0  0  0  0  0  0  0  0  0  0  0
   -4.4444  -12.3434    0.0000 C   0  0  0  0  0  0  0  0  0  0  0  0
   -5.2658  -13.5985    0.0000 N   0  0  0  0  0  0  0  0  0  0  0  0
   -5.1206  -11.0045    0.0000 O   0  0  0  0  0  0  0  0  0  0  0  0
   -0.5454  -11.1840    0.0000 C   0  0  0  0  0  0  0  0  0  0  0  0
   -1.2931  -13.2530    0.0000 O   0  0  0  0  0  0  0  0  0  0  0  0
    0.7567  -11.4895    0.0000 N   0  0  0  0  0  0  0  0  0  0  0  0
    2.0942  -11.4864    0.0000 C   0  0  0  0  0  0  0  0  0  0  0  0
    2.3546  -13.6710    0.0000 C   0  0  0  0  0  0  0  0  0  0  0  0
    1.1534  -14.5694    0.0000 C   0  0  0  0  0  0  0  0  0  0  0  0
   -0.2253  -13.9785    0.0000 C   0  0  0  0  0  0  0  0  0  0  0  0
   -1.4264  -14.8769    0.0000 C   0  0  0  0  0  0  0  0  0  0  0  0
   -1.2489  -16.3664    0.0000 C   0  0  0  0  0  0  0  0  0  0  0  0
   -2.4501  -17.2648    0.0000 C   0  0  0  0  0  0  0  0  0  0  0  0
   -2.2725  -18.7543    0.0000 C   0  0  0  0  0  0  0  0  0  0  0  0
   -0.8939  -19.3453    0.0000 C   0  0  0  0  0  0  0  0  0  0  0  0
    0.3073  -18.4468    0.0000 C   0  0  0  0  0  0  0  0  0  0  0  0
    0.1298  -16.9574    0.0000 C   0  0  0  0  0  0  0  0  0  0  0  0
    1.3309  -16.0589    0.0000 C   0  0  0  0  0  0  0  0  0  0  0  0
    3.3949  -11.1751    0.0000 C   0  0  0  0  0  0  0  0  0  0  0  0
    4.1520  -13.2407    0.0000 O   0  0  0  0  0  0  0  0  0  0  0  0
    4.5887  -10.5721    0.0000 N   0  0  0  0  0  0  0  0  0  0  0  0
    5.6114   -9.7101    0.0000 C   0  0  0  0  0  0  0  0  0  0  0  0
    7.2150  -11.2162    0.0000 C   0  0  0  0  0  0  0  0  0  0  0  0
    6.8724  -12.6765    0.0000 C   0  0  0  0  0  0  0  0  0  0  0  0
    7.9658  -13.7034    0.0000 C   0  0  0  0  0  0  0  0  0  0  0  0
    9.4018  -13.2699    0.0000 C   0  0  0  0  0  0  0  0  0  0  0  0
    9.7444  -11.8096    0.0000 C   0  0  0  0  0  0  0  0  0  0  0  0
    8.6510  -10.7827    0.0000 C   0  0  0  0  0  0  0  0  0  0  0  0
    6.4076   -8.6354    0.0000 C   0  0  0  0  0  0  0  0  0  0  0  0
    8.3154   -9.7311    0.0000 O   0  0  0  0  0  0  0  0  0  0  0  0
    8.1358   -8.0625    0.0000 N   0  0  0  0  0  0  0  0  0  0  0  0
    1.2454    2.7149    0.0000 C   0  0  0  0  0  0  0  0  0  0  0  0
    0.0946    3.1047    0.0000 O   0  0  0  0  0  0  0  0  0  0  0  0
    2.0435    3.9849    0.0000 N   0  0  0  0  0  0  0  0  0  0  0  0
    3.1041    5.0456    0.0000 C   0  0  0  0  0  0  0  0  0  0  0  0
    4.3742    5.8437    0.0000 C   0  0  0  0  0  0  0  0  0  0  0  0
    3.7234    7.1951    0.0000 C   0  0  0  0  0  0  0  0  0  0  0  0
    2.2276    7.3072    0.0000 O   0  0  0  0  0  0  0  0  0  0  0  0
    4.5684    8.4345    0.0000 N   0  0  0  0  0  0  0  0  0  0  0  0
    3.9175    9.7859    0.0000 C   0  0  0  0  0  0  0  0  0  0  0  0
    4.7625   11.0253    0.0000 C   0  0  0  0  0  0  0  0  0  0  0  0
    4.1117   12.3767    0.0000 C   0  0  0  0  0  0  0  0  0  0  0  0
    4.9567   13.6161    0.0000 N   0  0  0  0  0  0  0  0  0  0  0  0
    2.6159   12.4888    0.0000 O   0  0  0  0  0  0  0  0  0  0  0  0
    2.4217    9.8980    0.0000 C   0  0  0  0  0  0  0  0  0  0  0  0
    1.5768    8.6587    0.0000 O   0  0  0  0  0  0  0  0  0  0  0  0
    1.7709   11.2495    0.0000 N   0  0  0  0  0  0  0  0  0  0  0  0
    0.2751   11.3616    0.0000 C   0  0  0  0  0  0  0  0  0  0  0  0
   -0.3757   12.7130    0.0000 C   0  0  0  0  0  0  0  0  0  0  0  0
   -1.8715   12.8251    0.0000 C   0  0  0  0  0  0  0  0  0  0  0  0
   -2.5224   14.1766    0.0000 C   0  0  0  0  0  0  0  0  0  0  0  0
   -4.0182   14.2887    0.0000 N   0  0  0  0  0  0  0  0  0  0  0  0
   -4.6690   15.6401    0.0000 C   0  0  0  0  0  0  0  0  0  0  0  0
   -3.8240   16.8795    0.0000 N   0  0  0  0  0  0  0  0  0  0  0  0
   -6.1648   15.7522    0.0000 N   0  0  0  0  0  0  0  0  0  0  0  0
   -0.5699   10.1222    0.0000 C   0  0  0  0  0  0  0  0  0  0  0  0
    0.0810    8.7708    0.0000 O   0  0  0  0  0  0  0  0  0  0  0  0
   -2.0657   10.2343    0.0000 N   0  0  0  0  0  0  0  0  0  0  0  0
   -2.9107    8.9949    0.0000 C   0  0  0  0  0  0  0  0  0  0  0  0
   -4.4065    9.1070    0.0000 C   0  0  0  0  0  0  0  0  0  0  0  0
   -5.2514    7.8677    0.0000 C   0  0  0  0  0  0  0  0  0  0  0  0
   -6.7473    7.9798    0.0000 C   0  0  0  0  0  0  0  0  0  0  0  0
   -7.5922    6.7404    0.0000 C   0  0  0  0  0  0  0  0  0  0  0  0
   -6.9414    5.3890    0.0000 C   0  0  0  0  0  0  0  0  0  0  0  0
   -5.4456    5.2769    0.0000 C   0  0  0  0  0  0  0  0  0  0  0  0
   -4.6006    6.5162    0.0000 C   0  0  0  0  0  0  0  0  0  0  0  0
   -2.2598    7.6435    0.0000 C   0  0  0  0  0  0  0  0  0  0  0  0
   -0.7640    7.5314    0.0000 O   0  0  0  0  0  0  0  0  0  0  0  0
   -3.1048    6.4041    0.0000 N   0  0  0  0  0  0  0  0  0  0  0  0
   -2.4540    5.0527    0.0000 C   0  0  0  0  0  0  0  0  0  0  0  0
   -3.2990    3.8133    0.0000 C   0  0  0  0  0  0  0  0  0  0  0  0
   -0.9582    4.9406    0.0000 C   0  0  0  0  0  0  0  0  0  0  0  0
   -0.1132    6.1799    0.0000 N   0  0  0  0  0  0  0  0  0  0  0  0
   -0.5684    3.7898    0.0000 O   0  0  0  0  0  0  0  0  0  0  0  0
    5.7900    6.3391    0.0000 N   0  0  0  0  0  0  0  0  0  0  0  0
    7.2806    6.5070    0.0000 C   0  0  0  0  0  0  0  0  0  0  0  0
    7.2806    8.0070    0.0000 O   0  0  0  0  0  0  0  0  0  0  0  0
    8.7712    6.3391    0.0000 C   0  0  0  0  0  0  0  0  0  0  0  0
    9.1050    7.8015    0.0000 C   0  0  0  0  0  0  0  0  0  0  0  0
   10.5383    8.2436    0.0000 C   0  0  0  0  0  0  0  0  0  0  0  0
   10.8721    9.7060    0.0000 C   0  0  0  0  0  0  0  0  0  0  0  0
   12.3055   10.1481    0.0000 N   0  0  0  0  0  0  0  0  0  0  0  0
   12.6392   11.6105    0.0000 C   0  0  0  0  0  0  0  0  0  0  0  0
   11.5397   12.6308    0.0000 N   0  0  0  0  0  0  0  0  0  0  0  0
   14.0726   12.0527    0.0000 N   0  0  0  0  0  0  0  0  0  0  0  0
   10.1870    5.8437    0.0000 N   0  0  0  0  0  0  0  0  0  0  0  0
   11.4571    5.0456    0.0000 C   0  0  0  0  0  0  0  0  0  0  0  0
   12.3923    6.2184    0.0000 O   0  0  0  0  0  0  0  0  0  0  0  0
   12.5177    3.9849    0.0000 C   0  0  0  0  0  0  0  0  0  0  0  0
   13.6905    4.9202    0.0000 C   0  0  0  0  0  0  0  0  0  0  0  0
   15.0868    4.3722    0.0000 C   0  0  0  0  0  0  0  0  0  0  0  0
   16.2596    5.3074    0.0000 C   0  0  0  0  0  0  0  0  0  0  0  0
   17.6559    4.7594    0.0000 N   0  0  0  0  0  0  0  0  0  0  0  0
   18.8286    5.6946    0.0000 C   0  0  0  0  0  0  0  0  0  0  0  0
   18.6050    7.1779    0.0000 N   0  0  0  0  0  0  0  0  0  0  0  0
   20.2249    5.1466    0.0000 N   0  0  0  0  0  0  0  0  0  0  0  0
   13.3158    2.7149    0.0000 N   0  0  0  0  0  0  0  0  0  0  0  0
   13.8112    1.2990    0.0000 C   0  0  0  0  0  0  0  0  0  0  0  0
   15.2736    1.6328    0.0000 O   0  0  0  0  0  0  0  0  0  0  0  0
  2  1  1  6
  2  3  1  0
  3  4  1  0
  4  5  2  0
  4  6  1  0
  6  7  1  1
  7  8  1  0
  8  9  2  0
  9 10  1  0
 10 11  2  0
 11 12  1  0
 12 13  2  0
  6 14  1  0
 14 15  1  0
 15 16  2  0
 15 17  1  0
 17 18  1  0
 18 19  1  0
 19 20  1  0
 20 21  1  0
 21 22  1  0
 22 23  1  0
 23 24  2  0
 23 25  1  0
 25 26  1  0
 26 27  2  0
 27 28  1  0
 28 29  2  0
 29 30  1  0
 29 31  1  0
 31 32  2  0
 31 33  1  0
 33 34  1  0
 34 35  1  1
 35 36  1  0
 36 37  2  0
 37 38  1  0
 38 39  2  0
 39 40  1  0
 40 41  2  0
 41 42  1  0
 42 43  2  0
 43 44  1  0
 44 45  2  0
 34 46  1  0
 46 47  2  0
 46 48  1  0
 48 49  1  0
 49 50  1  6
 50 51  1  0
 49 52  1  0
 52 53  2  0
 52 54  1  0
 54 55  1  0
 55 56  1  6
 56 57  1  0
 57 58  1  0
 57 59  2  0
 55 60  1  0
 60 61  2  0
 60 62  1  0
 62 63  1  0
 63 64  1  1
 64 65  1  0
 65 66  2  0
 66 67  1  0
 67 68  2  0
 68 69  1  0
 69 70  2  0
 70 71  1  0
 71 72  2  0
 72 73  1  0
 73 74  2  0
 63 75  1  0
 75 76  2  0
 75 77  1  0
 77 78  1  0
 78 79  1  6
 79 80  2  0
 80 81  1  0
 81 82  2  0
 82 83  1  0
 83 84  2  0
 78 85  1  0
 85 86  2  0
 85 87  1  0
 27 88  1  0
 88 89  2  0
 88 90  1  0
 90 91  1  0
 91 92  1  0
 92 93  1  1
 93 94  2  0
 93 95  1  0
 95 96  1  0
 96 97  1  6
 97 98  1  0
 98 99  1  0
 98100  2  0
 96101  1  0
101102  2  0
101103  1  0
103104  1  0
104105  1  1
105106  1  0
106107  1  0
107108  1  0
108109  1  0
109110  2  0
109111  1  0
104112  1  0
112113  2  0
112114  1  0
114115  1  0
115116  1  6
116117  1  0
117118  2  0
118119  1  0
119120  2  0
120121  1  0
121122  2  0
115123  1  0
123124  2  0
123125  1  0
125126  1  0
126127  1  1
126128  1  0
128129  1  0
128130  2  0
 92131  1  0
131132  1  0
132133  2  0
132134  1  0
134135  1  6
135136  1  0
136137  1  0
137138  1  0
138139  1  0
139140  2  0
139141  1  0
134142  1  0
142143  1  0
143144  2  0
143145  1  0
145146  1  1
146147  1  0
147148  1  0
148149  1  0
149150  1  0
150151  2  0
150152  1  0
145153  1  0
153154  1  0
154155  2  0
154  2  1  0
 13  8  1  0
 17 87  1  1
122117  1  0
 30 25  2  0
 45 36  1  0
 74 65  1  0
 84 79  1  0
 44 39  1  0
 73 68  1  0
M  END
>  <molecule_chembl_id>  (209) 
CHEMBL4860021

>  <canonical_smiles>  (209) 
C[C@@H]1NC(=O)[C@@H](Cc2ccccc2)NC(=O)[C@@H]2CCCCNC(=O)c3cc(cc(c3)C(=O)N[C@H](Cc3ccc4ccccc4c3)C(=O)N[C@@H](CO)C(=O)N[C@@H](CC(N)=O)C(=O)N[C@H](Cc3ccc4ccccc4c3)C(=O)N[C@@H](c3ccccc3)C(=O)N2)C(=O)NC[C@@H](C(=O)N[C@@H](CC(N)=O)C(=O)N[C@H](CCCNC(=N)N)C(=O)N[C@@H](Cc2ccccc2)C(=O)N[C@H](C)C(N)=O)NC(=O)[C@H](CCCNC(=N)N)NC(=O)[C@@H](CCCNC(=N)N)NC1=O

>  <pchembl_value_mean>  (209) 
6.55

>  <inchi>  (209) 
InChI=1S/C105H131N29O21/c1-56(85(108)138)120-94(147)74(45-58-21-6-3-7-22-58)127-92(145)72(33-19-41-117-104(111)112)124-97(150)78(52-82(106)136)130-100(153)80-54-119-88(141)68-49-67-50-69(51-68)89(142)126-76(47-60-35-37-62-25-12-14-29-65(62)43-60)96(149)133-81(55-135)101(154)131-79(53-83(107)137)98(151)129-77(48-61-36-38-63-26-13-15-30-66(63)44-61)99(152)134-84(64-27-10-5-11-28-64)102(155)125-70(31-16-17-39-115-87(67)140)91(144)128-75(46-59-23-8-4-9-24-59)95(148)121-57(2)86(139)122-71(32-18-40-116-103(109)110)90(143)123-73(93(146)132-80)34-20-42-118-105(113)114/h3-15,21-30,35-38,43-44,49-51,56-57,70-81,84,135H,16-20,31-34,39-42,45-48,52-55H2,1-2H3,(H2,106,136)(H2,107,137)(H2,108,138)(H,115,140)(H,119,141)(H,120,147)(H,121,148)(H,122,139)(H,123,143)(H,124,150)(H,125,155)(H,126,142)(H,127,145)(H,128,144)(H,129,151)(H,130,153)(H,131,154)(H,132,146)(H,133,149)(H,134,152)(H4,109,110,116)(H4,111,112,117)(H4,113,114,118)/t56-,57+,70+,71-,72-,73+,74+,75-,76-,77-,78+,79+,80+,81+,84+/m1/s1

$$$$

     RDKit          2D

 47 52  0  0  0  0  0  0  0  0999 V2000
   12.0000   -5.1962    0.0000 C   0  0  0  0  0  0  0  0  0  0  0  0
   10.5000   -5.1962    0.0000 C   0  0  0  0  0  0  0  0  0  0  0  0
    9.7500   -6.4952    0.0000 C   0  0  0  0  0  0  0  0  0  0  0  0
    9.7500   -3.8971    0.0000 C   0  0  0  0  0  0  0  0  0  0  0  0
    8.2500   -3.8971    0.0000 C   0  0  0  0  0  0  0  0  0  0  0  0
    7.5000   -5.1962    0.0000 C   0  0  0  0  0  0  0  0  0  0  0  0
    6.7500   -6.4952    0.0000 N   0  0  0  0  0  0  0  0  0  0  0  0
    7.5000   -2.5981    0.0000 C   0  0  0  0  0  0  0  0  0  0  0  0
    8.2500   -1.2990    0.0000 O   0  0  0  0  0  0  0  0  0  0  0  0
    6.0000   -2.5981    0.0000 N   0  0  0  0  0  0  0  0  0  0  0  0
    5.2500   -3.8971    0.0000 C   0  0  0  0  0  0  0  0  0  0  0  0
    3.7500   -3.8971    0.0000 C   0  0  0  0  0  0  0  0  0  0  0  0
    3.0000   -2.5981    0.0000 N   0  0  0  0  0  0  0  0  0  0  0  0
    1.5000   -2.5981    0.0000 C   0  0  0  0  0  0  0  0  0  0  0  0
    0.7500   -3.8971    0.0000 N   0  0  0  0  0  0  0  0  0  0  0  0
   -0.7500   -3.8971    0.0000 C   0  0  0  0  0  0  0  0  0  0  0  0
   -1.5000   -5.1962    0.0000 O   0  0  0  0  0  0  0  0  0  0  0  0
   -3.0000   -5.1962    0.0000 C   0  0  0  0  0  0  0  0  0  0  0  0
   -3.7500   -6.4952    0.0000 C   0  0  0  0  0  0  0  0  0  0  0  0
   -3.1399   -7.8655    0.0000 C   0  0  0  0  0  0  0  0  0  0  0  0
   -4.2546   -8.8692    0.0000 C   0  0  0  0  0  0  0  0  0  0  0  0
   -5.5537   -8.1192    0.0000 C   0  0  0  0  0  0  0  0  0  0  0  0
   -5.2418   -6.6520    0.0000 N   0  0  0  0  0  0  0  0  0  0  0  0
   -6.2455   -5.5373    0.0000 C   0  0  0  0  0  0  0  0  0  0  0  0
   -1.5000   -2.5981    0.0000 N   0  0  0  0  0  0  0  0  0  0  0  0
   -0.7500   -1.2990    0.0000 C   0  0  0  0  0  0  0  0  0  0  0  0
    0.7500   -1.2990    0.0000 C   0  0  0  0  0  0  0  0  0  0  0  0
    1.5000    0.0000    0.0000 C   0  0  0  0  0  0  0  0  0  0  0  0
    0.7500    1.2990    0.0000 C   0  0  0  0  0  0  0  0  0  0  0  0
   -0.7500    1.2990    0.0000 N   0  0  0  0  0  0  0  0  0  0  0  0
   -1.5000    2.5981    0.0000 C   0  0  0  0  0  0  0  0  0  0  0  0
   -3.0000    2.5981    0.0000 C   0  0  0  0  0  0  0  0  0  0  0  0
   -3.7500    3.8971    0.0000 C   0  0  0  0  0  0  0  0  0  0  0  0
   -3.0000    5.1962    0.0000 C   0  0  0  0  0  0  0  0  0  0  0  0
   -1.5000    5.1962    0.0000 C   0  0  0  0  0  0  0  0  0  0  0  0
   -0.7500    6.4952    0.0000 C   0  0  0  0  0  0  0  0  0  0  0  0
    0.7500    6.4952    0.0000 C   0  0  0  0  0  0  0  0  0  0  0  0
    1.5000    5.1962    0.0000 C   0  0  0  0  0  0  0  0  0  0  0  0
    0.7500    3.8971    0.0000 C   0  0  0  0  0  0  0  0  0  0  0  0
    1.5000    2.5981    0.0000 Cl  0  0  0  0  0  0  0  0  0  0  0  0
   -0.7500    3.8971    0.0000 C   0  0  0  0  0  0  0  0  0  0  0  0
   -1.5000    0.0000    0.0000 C   0  0  0  0  0  0  0  0  0  0  0  0
    3.7500   -1.2990    0.0000 C   0  0  0  0  0  0  0  0  0  0  0  0
    5.2500   -1.2990    0.0000 C   0  0  0  0  0  0  0  0  0  0  0  0
    6.0000   -0.0000    0.0000 C   0  0  0  0  0  0  0  0  0  0  0  0
    5.2500    1.2990    0.0000 C   0  0  0  0  0  0  0  0  0  0  0  0
    4.5000    2.5981    0.0000 N   0  0  0  0  0  0  0  0  0  0  0  0
  1  2  1  0
  2  3  1  0
  2  4  1  0
  4  5  2  3
  5  6  1  0
  6  7  3  0
  5  8  1  0
  8  9  2  0
  8 10  1  0
 10 11  1  0
 11 12  1  0
 12 13  1  0
 13 14  1  0
 14 15  2  0
 15 16  1  0
 16 17  1  0
 17 18  1  0
 19 18  1  6
 19 20  1  0
 20 21  1  0
 21 22  1  0
 22 23  1  0
 23 24  1  0
 16 25  2  0
 25 26  1  0
 26 27  2  0
 27 28  1  0
 28 29  1  0
 29 30  1  0
 30 31  1  0
 31 32  2  0
 32 33  1  0
 33 34  2  0
 34 35  1  0
 35 36  2  0
 36 37  1  0
 37 38  2  0
 38 39  1  0
 39 40  1  0
 39 41  2  0
 30 42  1  0
 13 43  1  0
 43 44  1  0
 44 45  1  6
 45 46  1  0
 46 47  3  0
 44 10  1  0
 27 14  1  0
 41 31  1  0
 23 19  1  0
 42 26  1  0
 41 35  1  0
M  END
>  <molecule_chembl_id>  (210) 
CHEMBL5194712

>  <canonical_smiles>  (210) 
CC(C)C=C(C#N)C(=O)N1CCN(c2nc(OC[C@@H]3CCCN3C)nc3c2CCN(c2cccc4cccc(Cl)c24)C3)C[C@@H]1CC#N

>  <pchembl_value_mean>  (210) 
6.55

>  <inchi>  (210) 
InChI=1S/C36H41ClN8O2/c1-24(2)19-26(20-39)35(46)45-18-17-44(21-27(45)12-14-38)34-29-13-16-43(32-11-5-8-25-7-4-10-30(37)33(25)32)22-31(29)40-36(41-34)47-23-28-9-6-15-42(28)3/h4-5,7-8,10-11,19,24,27-28H,6,9,12-13,15-18,21-23H2,1-3H3/t27-,28-/m0/s1

$$$$

     RDKit          2D

 30 32  0  0  0  0  0  0  0  0999 V2000
    3.7500   -1.2990    0.0000 C   0  0  0  0  0  0  0  0  0  0  0  0
    3.0000    0.0000    0.0000 N   0  0  0  0  0  0  0  0  0  0  0  0
    1.5000    0.0000    0.0000 C   0  0  0  0  0  0  0  0  0  0  0  0
    0.7500   -1.2990    0.0000 C   0  0  0  0  0  0  0  0  0  0  0  0
   -0.7500   -1.2990    0.0000 C   0  0  0  0  0  0  0  0  0  0  0  0
   -1.5000   -2.5981    0.0000 N   0  0  0  0  0  0  0  0  0  0  0  0
   -3.0000   -2.5981    0.0000 C   0  0  0  0  0  0  0  0  0  0  0  0
   -3.7500   -3.8971    0.0000 C   0  0  0  0  0  0  0  0  0  0  0  0
   -3.7500   -1.2990    0.0000 C   0  0  0  0  0  0  0  0  0  0  0  0
   -5.2500   -1.2990    0.0000 C   0  0  0  0  0  0  0  0  0  0  0  0
   -6.0000    0.0000    0.0000 C   0  0  0  0  0  0  0  0  0  0  0  0
   -7.5000    0.0000    0.0000 C   0  0  0  0  0  0  0  0  0  0  0  0
   -8.2500    1.2990    0.0000 N   0  0  0  0  0  0  0  0  0  0  0  0
   -7.5000    2.5981    0.0000 C   0  0  0  0  0  0  0  0  0  0  0  0
   -6.0000    2.5981    0.0000 O   0  0  0  0  0  0  0  0  0  0  0  0
   -8.2500    3.8971    0.0000 N   0  0  0  0  0  0  0  0  0  0  0  0
   -7.5000    5.1962    0.0000 C   0  0  0  0  0  0  0  0  0  0  0  0
   -8.2500    6.4952    0.0000 C   0  0  0  0  0  0  0  0  0  0  0  0
   -7.5000    7.7942    0.0000 C   0  0  0  0  0  0  0  0  0  0  0  0
   -8.7990    8.5442    0.0000 C   0  0  0  0  0  0  0  0  0  0  0  0
   -6.2010    7.0442    0.0000 C   0  0  0  0  0  0  0  0  0  0  0  0
   -6.7500    9.0933    0.0000 C   0  0  0  0  0  0  0  0  0  0  0  0
   -8.2500   -1.2990    0.0000 C   0  0  0  0  0  0  0  0  0  0  0  0
   -7.5000   -2.5981    0.0000 C   0  0  0  0  0  0  0  0  0  0  0  0
   -6.0000   -2.5981    0.0000 C   0  0  0  0  0  0  0  0  0  0  0  0
   -5.2500   -3.8971    0.0000 C   0  0  0  0  0  0  0  0  0  0  0  0
   -3.0000    0.0000    0.0000 C   0  0  0  0  0  0  0  0  0  0  0  0
   -1.5000    0.0000    0.0000 C   0  0  0  0  0  0  0  0  0  0  0  0
   -0.7500    1.2990    0.0000 C   0  0  0  0  0  0  0  0  0  0  0  0
    0.7500    1.2990    0.0000 N   0  0  0  0  0  0  0  0  0  0  0  0
  1  2  1  0
  2  3  1  0
  3  4  2  0
  4  5  1  0
  5  6  2  0
  6  7  1  0
  7  8  1  0
  7  9  2  0
  9 10  1  0
 10 11  2  0
 11 12  1  0
 12 13  1  0
 13 14  1  0
 14 15  2  0
 14 16  1  0
 16 17  1  0
 17 18  1  0
 18 19  1  0
 19 20  1  0
 19 21  1  0
 19 22  1  0
 12 23  2  0
 23 24  1  0
 24 25  2  0
 25 26  1  0
  9 27  1  0
 27 28  2  0
 28 29  1  0
 29 30  2  0
 30  3  1  0
 28  5  1  0
 25 10  1  0
M  END
>  <molecule_chembl_id>  (211) 
CHEMBL3577118

>  <canonical_smiles>  (211) 
CNc1cc2nc(C)c(-c3cc(NC(=O)NCCC(C)(C)C)ccc3C)cc2cn1

>  <pchembl_value_mean>  (211) 
6.57

>  <inchi>  (211) 
InChI=1S/C24H31N5O/c1-15-7-8-18(29-23(30)26-10-9-24(3,4)5)12-19(15)20-11-17-14-27-22(25-6)13-21(17)28-16(20)2/h7-8,11-14H,9-10H2,1-6H3,(H,25,27)(H2,26,29,30)

$$$$

     RDKit          2D

 46 51  0  0  0  0  0  0  0  0999 V2000
   12.0000   -5.1962    0.0000 C   0  0  0  0  0  0  0  0  0  0  0  0
   10.5000   -5.1962    0.0000 C   0  0  0  0  0  0  0  0  0  0  0  0
    9.7500   -3.8971    0.0000 C   0  0  0  0  0  0  0  0  0  0  0  0
    8.2500   -3.8971    0.0000 C   0  0  0  0  0  0  0  0  0  0  0  0
    7.5000   -5.1962    0.0000 C   0  0  0  0  0  0  0  0  0  0  0  0
    6.7500   -6.4952    0.0000 N   0  0  0  0  0  0  0  0  0  0  0  0
    7.5000   -2.5981    0.0000 C   0  0  0  0  0  0  0  0  0  0  0  0
    8.2500   -1.2990    0.0000 O   0  0  0  0  0  0  0  0  0  0  0  0
    6.0000   -2.5981    0.0000 N   0  0  0  0  0  0  0  0  0  0  0  0
    5.2500   -3.8971    0.0000 C   0  0  0  0  0  0  0  0  0  0  0  0
    3.7500   -3.8971    0.0000 C   0  0  0  0  0  0  0  0  0  0  0  0
    3.0000   -2.5981    0.0000 N   0  0  0  0  0  0  0  0  0  0  0  0
    1.5000   -2.5981    0.0000 C   0  0  0  0  0  0  0  0  0  0  0  0
    0.7500   -3.8971    0.0000 N   0  0  0  0  0  0  0  0  0  0  0  0
   -0.7500   -3.8971    0.0000 C   0  0  0  0  0  0  0  0  0  0  0  0
   -1.5000   -5.1962    0.0000 O   0  0  0  0  0  0  0  0  0  0  0  0
   -3.0000   -5.1962    0.0000 C   0  0  0  0  0  0  0  0  0  0  0  0
   -3.7500   -6.4952    0.0000 C   0  0  0  0  0  0  0  0  0  0  0  0
   -3.1399   -7.8655    0.0000 C   0  0  0  0  0  0  0  0  0  0  0  0
   -4.2546   -8.8692    0.0000 C   0  0  0  0  0  0  0  0  0  0  0  0
   -5.5537   -8.1192    0.0000 C   0  0  0  0  0  0  0  0  0  0  0  0
   -5.2418   -6.6520    0.0000 N   0  0  0  0  0  0  0  0  0  0  0  0
   -6.2455   -5.5373    0.0000 C   0  0  0  0  0  0  0  0  0  0  0  0
   -1.5000   -2.5981    0.0000 N   0  0  0  0  0  0  0  0  0  0  0  0
   -0.7500   -1.2990    0.0000 C   0  0  0  0  0  0  0  0  0  0  0  0
    0.7500   -1.2990    0.0000 C   0  0  0  0  0  0  0  0  0  0  0  0
    1.5000    0.0000    0.0000 C   0  0  0  0  0  0  0  0  0  0  0  0
    0.7500    1.2990    0.0000 C   0  0  0  0  0  0  0  0  0  0  0  0
   -0.7500    1.2990    0.0000 N   0  0  0  0  0  0  0  0  0  0  0  0
   -1.5000    2.5981    0.0000 C   0  0  0  0  0  0  0  0  0  0  0  0
   -3.0000    2.5981    0.0000 C   0  0  0  0  0  0  0  0  0  0  0  0
   -3.7500    3.8971    0.0000 C   0  0  0  0  0  0  0  0  0  0  0  0
   -3.0000    5.1962    0.0000 C   0  0  0  0  0  0  0  0  0  0  0  0
   -1.5000    5.1962    0.0000 C   0  0  0  0  0  0  0  0  0  0  0  0
   -0.7500    6.4952    0.0000 C   0  0  0  0  0  0  0  0  0  0  0  0
    0.7500    6.4952    0.0000 C   0  0  0  0  0  0  0  0  0  0  0  0
    1.5000    5.1962    0.0000 C   0  0  0  0  0  0  0  0  0  0  0  0
    0.7500    3.8971    0.0000 C   0  0  0  0  0  0  0  0  0  0  0  0
    1.5000    2.5981    0.0000 Cl  0  0  0  0  0  0  0  0  0  0  0  0
   -0.7500    3.8971    0.0000 C   0  0  0  0  0  0  0  0  0  0  0  0
   -1.5000    0.0000    0.0000 C   0  0  0  0  0  0  0  0  0  0  0  0
    3.7500   -1.2990    0.0000 C   0  0  0  0  0  0  0  0  0  0  0  0
    5.2500   -1.2990    0.0000 C   0  0  0  0  0  0  0  0  0  0  0  0
    6.0000   -0.0000    0.0000 C   0  0  0  0  0  0  0  0  0  0  0  0
    5.2500    1.2990    0.0000 C   0  0  0  0  0  0  0  0  0  0  0  0
    4.5000    2.5981    0.0000 N   0  0  0  0  0  0  0  0  0  0  0  0
  1  2  1  0
  2  3  1  0
  3  4  2  3
  4  5  1  0
  5  6  3  0
  4  7  1  0
  7  8  2  0
  7  9  1  0
  9 10  1  0
 10 11  1  0
 11 12  1  0
 12 13  1  0
 13 14  2  0
 14 15  1  0
 15 16  1  0
 16 17  1  0
 18 17  1  6
 18 19  1  0
 19 20  1  0
 20 21  1  0
 21 22  1  0
 22 23  1  0
 15 24  2  0
 24 25  1  0
 25 26  2  0
 26 27  1  0
 27 28  1  0
 28 29  1  0
 29 30  1  0
 30 31  2  0
 31 32  1  0
 32 33  2  0
 33 34  1  0
 34 35  2  0
 35 36  1  0
 36 37  2  0
 37 38  1  0
 38 39  1  0
 38 40  2  0
 29 41  1  0
 12 42  1  0
 42 43  1  0
 43 44  1  6
 44 45  1  0
 45 46  3  0
 43  9  1  0
 26 13  1  0
 40 30  1  0
 22 18  1  0
 41 25  1  0
 40 34  1  0
M  END
>  <molecule_chembl_id>  (212) 
CHEMBL5205064

>  <canonical_smiles>  (212) 
CCC=C(C#N)C(=O)N1CCN(c2nc(OC[C@@H]3CCCN3C)nc3c2CCN(c2cccc4cccc(Cl)c24)C3)C[C@@H]1CC#N

>  <pchembl_value_mean>  (212) 
6.57

>  <inchi>  (212) 
InChI=1S/C35H39ClN8O2/c1-3-7-25(20-38)34(45)44-19-18-43(21-26(44)13-15-37)33-28-14-17-42(31-12-5-9-24-8-4-11-29(36)32(24)31)22-30(28)39-35(40-33)46-23-27-10-6-16-41(27)2/h4-5,7-9,11-12,26-27H,3,6,10,13-14,16-19,21-23H2,1-2H3/t26-,27-/m0/s1

$$$$

     RDKit          2D

 42 47  0  0  0  0  0  0  0  0999 V2000
    4.8107  -10.9304    0.0000 C   0  0  0  0  0  0  0  0  0  0  0  0
    4.0607   -9.6313    0.0000 C   0  0  0  0  0  0  0  0  0  0  0  0
    4.8107   -8.3323    0.0000 C   0  0  0  0  0  0  0  0  0  0  0  0
    6.3107   -8.3323    0.0000 O   0  0  0  0  0  0  0  0  0  0  0  0
    4.0607   -7.0333    0.0000 N   0  0  0  0  0  0  0  0  0  0  0  0
    2.6118   -6.6450    0.0000 C   0  0  0  0  0  0  0  0  0  0  0  0
    3.0000   -5.1962    0.0000 C   0  0  0  0  0  0  0  0  0  0  0  0
    3.7500   -3.8971    0.0000 C   0  0  0  0  0  0  0  0  0  0  0  0
    3.0000   -2.5981    0.0000 C   0  0  0  0  0  0  0  0  0  0  0  0
    1.5000   -2.5981    0.0000 N   0  0  0  0  0  0  0  0  0  0  0  0
    0.7500   -1.2990    0.0000 C   0  0  0  0  0  0  0  0  0  0  0  0
    1.5000    0.0000    0.0000 N   0  0  0  0  0  0  0  0  0  0  0  0
    0.7500    1.2990    0.0000 C   0  0  0  0  0  0  0  0  0  0  0  0
    1.5000    2.5981    0.0000 O   0  0  0  0  0  0  0  0  0  0  0  0
    3.0000    2.5981    0.0000 C   0  0  0  0  0  0  0  0  0  0  0  0
    3.7500    3.8971    0.0000 C   0  0  0  0  0  0  0  0  0  0  0  0
    5.2500    3.8971    0.0000 C   0  0  0  0  0  0  0  0  0  0  0  0
    6.0000    5.1962    0.0000 N   0  0  0  0  0  0  0  0  0  0  0  0
    7.5000    5.1962    0.0000 C   0  0  0  0  0  0  0  0  0  0  0  0
    5.2500    6.4952    0.0000 C   0  0  0  0  0  0  0  0  0  0  0  0
   -0.7500    1.2990    0.0000 N   0  0  0  0  0  0  0  0  0  0  0  0
   -1.5000    0.0000    0.0000 C   0  0  0  0  0  0  0  0  0  0  0  0
   -3.0000    0.0000    0.0000 C   0  0  0  0  0  0  0  0  0  0  0  0
   -3.7500    1.2990    0.0000 F   0  0  0  0  0  0  0  0  0  0  0  0
   -3.7500   -1.2990    0.0000 C   0  0  0  0  0  0  0  0  0  0  0  0
   -5.2500   -1.2990    0.0000 C   0  0  0  0  0  0  0  0  0  0  0  0
   -6.0000    0.0000    0.0000 C   0  0  0  0  0  0  0  0  0  0  0  0
   -5.2500    1.2990    0.0000 C   0  0  0  0  0  0  0  0  0  0  0  0
   -7.5000    0.0000    0.0000 C   0  0  0  0  0  0  0  0  0  0  0  0
   -8.2500   -1.2990    0.0000 C   0  0  0  0  0  0  0  0  0  0  0  0
   -7.5000   -2.5981    0.0000 C   0  0  0  0  0  0  0  0  0  0  0  0
   -7.9635   -4.0247    0.0000 N   0  0  0  0  0  0  0  0  0  0  0  0
   -6.7500   -4.9063    0.0000 N   0  0  0  0  0  0  0  0  0  0  0  0
   -5.5365   -4.0247    0.0000 C   0  0  0  0  0  0  0  0  0  0  0  0
   -6.0000   -2.5981    0.0000 C   0  0  0  0  0  0  0  0  0  0  0  0
   -3.0000   -2.5981    0.0000 C   0  0  0  0  0  0  0  0  0  0  0  0
   -3.7500   -3.8971    0.0000 Cl  0  0  0  0  0  0  0  0  0  0  0  0
   -1.5000   -2.5981    0.0000 C   0  0  0  0  0  0  0  0  0  0  0  0
   -0.7500   -1.2990    0.0000 C   0  0  0  0  0  0  0  0  0  0  0  0
    0.7500   -3.8971    0.0000 C   0  0  0  0  0  0  0  0  0  0  0  0
    1.5000   -5.1962    0.0000 C   0  0  0  0  0  0  0  0  0  0  0  0
    4.4489   -5.5844    0.0000 C   0  0  0  0  0  0  0  0  0  0  0  0
  1  2  2  0
  2  3  1  0
  3  4  2  0
  3  5  1  0
  5  6  1  0
  6  7  1  0
  7  8  1  0
  8  9  1  0
  9 10  1  0
 10 11  1  0
 11 12  2  0
 12 13  1  0
 13 14  1  0
 14 15  1  0
 15 16  1  0
 16 17  1  0
 17 18  1  0
 18 19  1  0
 18 20  1  0
 13 21  2  0
 21 22  1  0
 22 23  2  0
 23 24  1  0
 23 25  1  0
 25 26  1  0
 26 27  2  0
 27 28  1  0
 27 29  1  0
 29 30  2  0
 30 31  1  0
 31 32  1  0
 32 33  1  0
 33 34  2  0
 34 35  1  0
 25 36  2  0
 36 37  1  0
 36 38  1  0
 38 39  2  0
 10 40  1  0
 40 41  1  0
  7 42  1  0
 42  5  1  0
 41  7  1  0
 39 11  1  0
 39 22  1  0
 35 26  1  0
 35 31  2  0
M  END
>  <molecule_chembl_id>  (213) 
CHEMBL5186010

>  <canonical_smiles>  (213) 
C=CC(=O)N1CC2(CCN(c3nc(OCCCN(C)C)nc4c(F)c(-c5c(C)ccc6[nH]ncc56)c(Cl)cc34)CC2)C1

>  <pchembl_value_mean>  (213) 
6.58

>  <inchi>  (213) 
InChI=1S/C31H35ClFN7O2/c1-5-24(41)40-17-31(18-40)9-12-39(13-10-31)29-20-15-22(32)26(25-19(2)7-8-23-21(25)16-34-37-23)27(33)28(20)35-30(36-29)42-14-6-11-38(3)4/h5,7-8,15-16H,1,6,9-14,17-18H2,2-4H3,(H,34,37)

$$$$

     RDKit          2D

 38 43  0  0  0  0  0  0  0  0999 V2000
    3.7500   -9.0933    0.0000 C   0  0  0  0  0  0  0  0  0  0  0  0
    3.0000   -7.7942    0.0000 C   0  0  0  0  0  0  0  0  0  0  0  0
    3.7500   -6.4952    0.0000 C   0  0  0  0  0  0  0  0  0  0  0  0
    5.2500   -6.4952    0.0000 O   0  0  0  0  0  0  0  0  0  0  0  0
    3.0000   -5.1962    0.0000 N   0  0  0  0  0  0  0  0  0  0  0  0
    1.5000   -5.1962    0.0000 C   0  0  0  0  0  0  0  0  0  0  0  0
    0.7500   -3.8971    0.0000 C   0  0  0  0  0  0  0  0  0  0  0  0
    1.5000   -2.5981    0.0000 N   0  0  0  0  0  0  0  0  0  0  0  0
    0.7500   -1.2990    0.0000 C   0  0  0  0  0  0  0  0  0  0  0  0
    1.5000    0.0000    0.0000 N   0  0  0  0  0  0  0  0  0  0  0  0
    0.7500    1.2990    0.0000 C   0  0  0  0  0  0  0  0  0  0  0  0
    1.5000    2.5981    0.0000 N   0  0  0  0  0  0  0  0  0  0  0  0
    2.9489    2.9863    0.0000 C   0  0  0  0  0  0  0  0  0  0  0  0
    2.5607    4.4352    0.0000 C   0  0  0  0  0  0  0  0  0  0  0  0
    3.3107    5.7342    0.0000 N   0  0  0  0  0  0  0  0  0  0  0  0
    4.8107    5.7342    0.0000 C   0  0  0  0  0  0  0  0  0  0  0  0
    2.5607    7.0333    0.0000 C   0  0  0  0  0  0  0  0  0  0  0  0
    1.1118    4.0470    0.0000 C   0  0  0  0  0  0  0  0  0  0  0  0
   -0.7500    1.2990    0.0000 N   0  0  0  0  0  0  0  0  0  0  0  0
   -1.5000    0.0000    0.0000 C   0  0  0  0  0  0  0  0  0  0  0  0
   -0.7500   -1.2990    0.0000 C   0  0  0  0  0  0  0  0  0  0  0  0
   -1.5000   -2.5981    0.0000 C   0  0  0  0  0  0  0  0  0  0  0  0
   -3.0000   -2.5981    0.0000 C   0  0  0  0  0  0  0  0  0  0  0  0
   -3.7500   -3.8971    0.0000 C   0  0  0  0  0  0  0  0  0  0  0  0
   -3.7500   -1.2990    0.0000 C   0  0  0  0  0  0  0  0  0  0  0  0
   -5.2500   -1.2990    0.0000 C   0  0  0  0  0  0  0  0  0  0  0  0
   -6.0000   -2.5981    0.0000 C   0  0  0  0  0  0  0  0  0  0  0  0
   -5.2500   -3.8971    0.0000 Cl  0  0  0  0  0  0  0  0  0  0  0  0
   -7.5000   -2.5981    0.0000 C   0  0  0  0  0  0  0  0  0  0  0  0
   -8.2500   -1.2990    0.0000 C   0  0  0  0  0  0  0  0  0  0  0  0
   -7.5000   -0.0000    0.0000 C   0  0  0  0  0  0  0  0  0  0  0  0
   -7.9635    1.4266    0.0000 N   0  0  0  0  0  0  0  0  0  0  0  0
   -6.7500    2.3083    0.0000 N   0  0  0  0  0  0  0  0  0  0  0  0
   -5.5365    1.4266    0.0000 C   0  0  0  0  0  0  0  0  0  0  0  0
   -6.0000    0.0000    0.0000 C   0  0  0  0  0  0  0  0  0  0  0  0
   -3.0000    0.0000    0.0000 C   0  0  0  0  0  0  0  0  0  0  0  0
    3.0000   -2.5981    0.0000 C   0  0  0  0  0  0  0  0  0  0  0  0
    3.7500   -3.8971    0.0000 C   0  0  0  0  0  0  0  0  0  0  0  0
  1  2  2  0
  2  3  1  0
  3  4  2  0
  3  5  1  0
  5  6  1  0
  6  7  1  0
  7  8  1  0
  8  9  1  0
  9 10  2  0
 10 11  1  0
 11 12  1  0
 12 13  1  0
 13 14  1  0
 14 15  1  0
 15 16  1  0
 15 17  1  0
 14 18  1  0
 11 19  2  0
 19 20  1  0
 20 21  2  0
 21 22  1  0
 22 23  1  0
 23 24  1  1
 23 25  1  0
 25 26  1  6
 26 27  2  0
 27 28  1  0
 27 29  1  0
 29 30  2  0
 30 31  1  0
 31 32  1  0
 32 33  1  0
 33 34  2  0
 34 35  1  0
 25 36  1  0
  8 37  1  0
 37 38  1  0
 38  5  1  0
 21  9  1  0
 35 26  1  0
 18 12  1  0
 36 20  1  0
 35 31  2  0
M  END
>  <molecule_chembl_id>  (214) 
CHEMBL4467039

>  <canonical_smiles>  (214) 
C=CC(=O)N1CCN(c2nc(N3CC(N(C)C)C3)nc3c2C[C@@H](C)[C@H](c2c(Cl)ccc4[nH]ncc24)C3)CC1

>  <pchembl_value_mean>  (214) 
6.585

>  <inchi>  (214) 
InChI=1S/C28H35ClN8O/c1-5-25(38)35-8-10-36(11-9-35)27-20-12-17(2)19(26-21-14-30-33-23(21)7-6-22(26)29)13-24(20)31-28(32-27)37-15-18(16-37)34(3)4/h5-7,14,17-19H,1,8-13,15-16H2,2-4H3,(H,30,33)/t17-,19-/m1/s1

$$$$

     RDKit          2D

 39 44  0  0  0  0  0  0  0  0999 V2000
    9.7500   -3.8971    0.0000 C   0  0  0  0  0  0  0  0  0  0  0  0
    8.2500   -3.8971    0.0000 C   0  0  0  0  0  0  0  0  0  0  0  0
    7.5000   -2.5981    0.0000 C   0  0  0  0  0  0  0  0  0  0  0  0
    8.2500   -1.2990    0.0000 O   0  0  0  0  0  0  0  0  0  0  0  0
    6.0000   -2.5981    0.0000 N   0  0  0  0  0  0  0  0  0  0  0  0
    5.2500   -3.8971    0.0000 C   0  0  0  0  0  0  0  0  0  0  0  0
    3.7500   -3.8971    0.0000 C   0  0  0  0  0  0  0  0  0  0  0  0
    3.0000   -2.5981    0.0000 N   0  0  0  0  0  0  0  0  0  0  0  0
    1.5000   -2.5981    0.0000 C   0  0  0  0  0  0  0  0  0  0  0  0
    0.7500   -3.8971    0.0000 N   0  0  0  0  0  0  0  0  0  0  0  0
   -0.7500   -3.8971    0.0000 C   0  0  0  0  0  0  0  0  0  0  0  0
   -1.5000   -5.1962    0.0000 O   0  0  0  0  0  0  0  0  0  0  0  0
   -3.0000   -5.1962    0.0000 C   0  0  0  0  0  0  0  0  0  0  0  0
   -3.7500   -6.4952    0.0000 C   0  0  0  0  0  0  0  0  0  0  0  0
   -3.1399   -7.8655    0.0000 C   0  0  0  0  0  0  0  0  0  0  0  0
   -4.2546   -8.8692    0.0000 C   0  0  0  0  0  0  0  0  0  0  0  0
   -5.5537   -8.1192    0.0000 C   0  0  0  0  0  0  0  0  0  0  0  0
   -5.2418   -6.6520    0.0000 N   0  0  0  0  0  0  0  0  0  0  0  0
   -6.2455   -5.5373    0.0000 C   0  0  0  0  0  0  0  0  0  0  0  0
   -1.5000   -2.5981    0.0000 N   0  0  0  0  0  0  0  0  0  0  0  0
   -0.7500   -1.2990    0.0000 C   0  0  0  0  0  0  0  0  0  0  0  0
    0.7500   -1.2990    0.0000 C   0  0  0  0  0  0  0  0  0  0  0  0
    1.5000    0.0000    0.0000 C   0  0  0  0  0  0  0  0  0  0  0  0
    0.7500    1.2990    0.0000 C   0  0  0  0  0  0  0  0  0  0  0  0
   -0.7500    1.2990    0.0000 N   0  0  0  0  0  0  0  0  0  0  0  0
   -1.5000    2.5981    0.0000 C   0  0  0  0  0  0  0  0  0  0  0  0
   -3.0000    2.5981    0.0000 C   0  0  0  0  0  0  0  0  0  0  0  0
   -3.7500    1.2990    0.0000 C   0  0  0  0  0  0  0  0  0  0  0  0
   -3.7500    3.8971    0.0000 C   0  0  0  0  0  0  0  0  0  0  0  0
   -5.2500    3.8971    0.0000 C   0  0  0  0  0  0  0  0  0  0  0  0
   -3.0000    5.1962    0.0000 C   0  0  0  0  0  0  0  0  0  0  0  0
   -1.5000    5.1962    0.0000 C   0  0  0  0  0  0  0  0  0  0  0  0
   -0.4963    6.3109    0.0000 N   0  0  0  0  0  0  0  0  0  0  0  0
    0.8740    5.7008    0.0000 N   0  0  0  0  0  0  0  0  0  0  0  0
    0.7172    4.2090    0.0000 C   0  0  0  0  0  0  0  0  0  0  0  0
   -0.7500    3.8971    0.0000 C   0  0  0  0  0  0  0  0  0  0  0  0
   -1.5000    0.0000    0.0000 C   0  0  0  0  0  0  0  0  0  0  0  0
    3.7500   -1.2990    0.0000 C   0  0  0  0  0  0  0  0  0  0  0  0
    5.2500   -1.2990    0.0000 C   0  0  0  0  0  0  0  0  0  0  0  0
  1  2  2  0
  2  3  1  0
  3  4  2  0
  3  5  1  0
  5  6  1  0
  6  7  1  0
  7  8  1  0
  8  9  1  0
  9 10  2  0
 10 11  1  0
 11 12  1  0
 12 13  1  0
 14 13  1  6
 14 15  1  0
 15 16  1  0
 16 17  1  0
 17 18  1  0
 18 19  1  0
 11 20  2  0
 20 21  1  0
 21 22  2  0
 22 23  1  0
 23 24  1  0
 24 25  1  0
 25 26  1  0
 26 27  2  0
 27 28  1  0
 27 29  1  0
 29 30  1  0
 29 31  2  0
 31 32  1  0
 32 33  1  0
 33 34  1  0
 34 35  2  0
 35 36  1  0
 25 37  1  0
  8 38  1  0
 38 39  1  0
 39  5  1  0
 22  9  1  0
 36 26  1  0
 18 14  1  0
 37 21  1  0
 36 32  2  0
M  END
>  <molecule_chembl_id>  (215) 
CHEMBL4645768

>  <canonical_smiles>  (215) 
C=CC(=O)N1CCN(c2nc(OC[C@@H]3CCCN3C)nc3c2CCN(c2c(C)c(C)cc4[nH]ncc24)C3)CC1

>  <pchembl_value_mean>  (215) 
6.59

>  <inchi>  (215) 
InChI=1S/C29H38N8O2/c1-5-26(38)35-11-13-36(14-12-35)28-22-8-10-37(27-20(3)19(2)15-24-23(27)16-30-33-24)17-25(22)31-29(32-28)39-18-21-7-6-9-34(21)4/h5,15-16,21H,1,6-14,17-18H2,2-4H3,(H,30,33)/t21-/m0/s1

$$$$

     RDKit          2D

140145  0  0  0  0  0  0  0  0999 V2000
    7.4592   15.3348    0.0000 C   0  0  0  0  0  0  0  0  0  0  0  0
    6.1077   14.6840    0.0000 C   0  0  0  0  0  0  0  0  0  0  0  0
    5.9956   13.1882    0.0000 C   0  0  0  0  0  0  0  0  0  0  0  0
    7.2350   12.3432    0.0000 C   0  0  0  0  0  0  0  0  0  0  0  0
    4.6442   12.5373    0.0000 C   0  0  0  0  0  0  0  0  0  0  0  0
    5.1713   11.1330    0.0000 N   0  0  0  0  0  0  0  0  0  0  0  0
    5.4391    9.6571    0.0000 C   0  0  0  0  0  0  0  0  0  0  0  0
    6.9331    9.7915    0.0000 O   0  0  0  0  0  0  0  0  0  0  0  0
    5.4391    8.1571    0.0000 C   0  0  0  0  0  0  0  0  0  0  0  0
    6.9331    8.0226    0.0000 C   0  0  0  0  0  0  0  0  0  0  0  0
    7.5636    6.6616    0.0000 C   0  0  0  0  0  0  0  0  0  0  0  0
    6.7002    5.4350    0.0000 C   0  0  0  0  0  0  0  0  0  0  0  0
    7.3307    4.0740    0.0000 C   0  0  0  0  0  0  0  0  0  0  0  0
    8.8247    3.9395    0.0000 C   0  0  0  0  0  0  0  0  0  0  0  0
    9.4552    2.5785    0.0000 O   0  0  0  0  0  0  0  0  0  0  0  0
    9.6881    5.1661    0.0000 C   0  0  0  0  0  0  0  0  0  0  0  0
    9.0576    6.5271    0.0000 C   0  0  0  0  0  0  0  0  0  0  0  0
    5.1713    6.6812    0.0000 N   0  0  0  0  0  0  0  0  0  0  0  0
    4.6442    5.2768    0.0000 C   0  0  0  0  0  0  0  0  0  0  0  0
    5.9956    4.6260    0.0000 O   0  0  0  0  0  0  0  0  0  0  0  0
    3.8748    3.9892    0.0000 C   0  0  0  0  0  0  0  0  0  0  0  0
    5.0884    3.1075    0.0000 C   0  0  0  0  0  0  0  0  0  0  0  0
    4.9316    1.6157    0.0000 C   0  0  0  0  0  0  0  0  0  0  0  0
    6.1451    0.7340    0.0000 C   0  0  0  0  0  0  0  0  0  0  0  0
    3.5613    1.0056    0.0000 C   0  0  0  0  0  0  0  0  0  0  0  0
    2.8879    2.8596    0.0000 N   0  0  0  0  0  0  0  0  0  0  0  0
    1.7152    1.9243    0.0000 C   0  0  0  0  0  0  0  0  0  0  0  0
    2.5415    0.6725    0.0000 O   0  0  0  0  0  0  0  0  0  0  0  0
    0.3943    1.2135    0.0000 C   0  0  0  0  0  0  0  0  0  0  0  0
    1.2760    0.0000    0.0000 C   0  0  0  0  0  0  0  0  0  0  0  0
    0.3943   -1.2135    0.0000 C   0  0  0  0  0  0  0  0  0  0  0  0
   -1.0323   -0.7500    0.0000 C   0  0  0  0  0  0  0  0  0  0  0  0
   -1.0323    0.7500    0.0000 N   0  0  0  0  0  0  0  0  0  0  0  0
   -2.5187    0.5487    0.0000 C   0  0  0  0  0  0  0  0  0  0  0  0
   -2.4514   -0.9498    0.0000 O   0  0  0  0  0  0  0  0  0  0  0  0
   -4.0172    0.6159    0.0000 C   0  0  0  0  0  0  0  0  0  0  0  0
   -4.2186   -0.8705    0.0000 N   0  0  0  0  0  0  0  0  0  0  0  0
   -5.6065   -1.4393    0.0000 C   0  0  0  0  0  0  0  0  0  0  0  0
   -6.7931   -0.5217    0.0000 O   0  0  0  0  0  0  0  0  0  0  0  0
   -5.8079   -2.9257    0.0000 C   0  0  0  0  0  0  0  0  0  0  0  0
   -7.1958   -3.4946    0.0000 C   0  0  0  0  0  0  0  0  0  0  0  0
   -7.3972   -4.9810    0.0000 C   0  0  0  0  0  0  0  0  0  0  0  0
   -8.7851   -5.5498    0.0000 C   0  0  0  0  0  0  0  0  0  0  0  0
   -8.9865   -7.0363    0.0000 N   0  0  0  0  0  0  0  0  0  0  0  0
  -10.3744   -7.6051    0.0000 C   0  0  0  0  0  0  0  0  0  0  0  0
  -11.5610   -6.6875    0.0000 N   0  0  0  0  0  0  0  0  0  0  0  0
  -10.5758   -9.0915    0.0000 N   0  0  0  0  0  0  0  0  0  0  0  0
   -4.6213   -3.8433    0.0000 N   0  0  0  0  0  0  0  0  0  0  0  0
   -4.8226   -5.3298    0.0000 C   0  0  0  0  0  0  0  0  0  0  0  0
   -6.2106   -5.8986    0.0000 O   0  0  0  0  0  0  0  0  0  0  0  0
   -3.6360   -6.2473    0.0000 C   0  0  0  0  0  0  0  0  0  0  0  0
   -3.8373   -7.7338    0.0000 C   0  0  0  0  0  0  0  0  0  0  0  0
   -2.6507   -8.6513    0.0000 C   0  0  0  0  0  0  0  0  0  0  0  0
   -2.8521  -10.1378    0.0000 C   0  0  0  0  0  0  0  0  0  0  0  0
   -1.6655  -11.0554    0.0000 N   0  0  0  0  0  0  0  0  0  0  0  0
   -1.8668  -12.5418    0.0000 C   0  0  0  0  0  0  0  0  0  0  0  0
   -3.2548  -13.1106    0.0000 N   0  0  0  0  0  0  0  0  0  0  0  0
   -0.6802  -13.4594    0.0000 N   0  0  0  0  0  0  0  0  0  0  0  0
   -2.2480   -5.6785    0.0000 N   0  0  0  0  0  0  0  0  0  0  0  0
   -1.0614   -6.5961    0.0000 C   0  0  0  0  0  0  0  0  0  0  0  0
    0.3265   -6.0272    0.0000 C   0  0  0  0  0  0  0  0  0  0  0  0
   -1.2628   -8.0825    0.0000 O   0  0  0  0  0  0  0  0  0  0  0  0
   -5.4796    0.9497    0.0000 C   0  0  0  0  0  0  0  0  0  0  0  0
   -6.8589    1.5393    0.0000 S   0  0  0  0  0  0  0  0  0  0  0  0
   -8.1107    2.3656    0.0000 S   0  0  0  0  0  0  0  0  0  0  0  0
   -9.1949    3.4022    0.0000 C   0  0  0  0  0  0  0  0  0  0  0  0
  -10.0766    4.6157    0.0000 C   0  0  0  0  0  0  0  0  0  0  0  0
  -11.3643    3.8464    0.0000 C   0  0  0  0  0  0  0  0  0  0  0  0
  -11.3418    2.3466    0.0000 O   0  0  0  0  0  0  0  0  0  0  0  0
  -12.6744    4.5769    0.0000 N   0  0  0  0  0  0  0  0  0  0  0  0
  -13.9621    3.8075    0.0000 C   0  0  0  0  0  0  0  0  0  0  0  0
  -15.2722    4.5380    0.0000 C   0  0  0  0  0  0  0  0  0  0  0  0
  -16.5599    3.7687    0.0000 C   0  0  0  0  0  0  0  0  0  0  0  0
  -17.8700    4.4991    0.0000 C   0  0  0  0  0  0  0  0  0  0  0  0
  -19.1576    3.7298    0.0000 N   0  0  0  0  0  0  0  0  0  0  0  0
  -20.4678    4.4603    0.0000 C   0  0  0  0  0  0  0  0  0  0  0  0
  -20.4902    5.9601    0.0000 N   0  0  0  0  0  0  0  0  0  0  0  0
  -21.7554    3.6909    0.0000 N   0  0  0  0  0  0  0  0  0  0  0  0
  -13.9396    2.3077    0.0000 C   0  0  0  0  0  0  0  0  0  0  0  0
  -12.6295    1.5772    0.0000 O   0  0  0  0  0  0  0  0  0  0  0  0
  -15.2273    1.5383    0.0000 N   0  0  0  0  0  0  0  0  0  0  0  0
  -15.2049    0.0385    0.0000 C   0  0  0  0  0  0  0  0  0  0  0  0
  -16.4925   -0.7308    0.0000 C   0  0  0  0  0  0  0  0  0  0  0  0
  -16.4701   -2.2307    0.0000 C   0  0  0  0  0  0  0  0  0  0  0  0
  -17.7578   -3.0000    0.0000 C   0  0  0  0  0  0  0  0  0  0  0  0
  -17.7353   -4.4999    0.0000 N   0  0  0  0  0  0  0  0  0  0  0  0
  -19.0230   -5.2692    0.0000 C   0  0  0  0  0  0  0  0  0  0  0  0
  -20.3331   -4.5387    0.0000 N   0  0  0  0  0  0  0  0  0  0  0  0
  -19.0006   -6.7690    0.0000 N   0  0  0  0  0  0  0  0  0  0  0  0
  -13.8948   -0.6920    0.0000 C   0  0  0  0  0  0  0  0  0  0  0  0
  -13.8723   -2.1918    0.0000 N   0  0  0  0  0  0  0  0  0  0  0  0
  -12.6071    0.0774    0.0000 O   0  0  0  0  0  0  0  0  0  0  0  0
  -10.7274    5.9672    0.0000 N   0  0  0  0  0  0  0  0  0  0  0  0
  -11.1265    7.4131    0.0000 C   0  0  0  0  0  0  0  0  0  0  0  0
  -12.6024    7.1453    0.0000 O   0  0  0  0  0  0  0  0  0  0  0  0
  -11.2610    8.9071    0.0000 C   0  0  0  0  0  0  0  0  0  0  0  0
  -12.7610    8.9071    0.0000 C   0  0  0  0  0  0  0  0  0  0  0  0
  -13.5110   10.2061    0.0000 C   0  0  0  0  0  0  0  0  0  0  0  0
  -13.5110    7.6081    0.0000 C   0  0  0  0  0  0  0  0  0  0  0  0
  -11.1265   10.4011    0.0000 N   0  0  0  0  0  0  0  0  0  0  0  0
  -10.7274   11.8470    0.0000 C   0  0  0  0  0  0  0  0  0  0  0  0
  -12.1318   12.3741    0.0000 O   0  0  0  0  0  0  0  0  0  0  0  0
  -10.0766   13.1984    0.0000 C   0  0  0  0  0  0  0  0  0  0  0  0
  -11.5032   13.6620    0.0000 C   0  0  0  0  0  0  0  0  0  0  0  0
  -11.5032   15.1620    0.0000 C   0  0  0  0  0  0  0  0  0  0  0  0
  -10.0766   15.6255    0.0000 C   0  0  0  0  0  0  0  0  0  0  0  0
   -9.1949   14.4120    0.0000 N   0  0  0  0  0  0  0  0  0  0  0  0
   -8.1107   15.4486    0.0000 C   0  0  0  0  0  0  0  0  0  0  0  0
   -9.0460   16.6213    0.0000 O   0  0  0  0  0  0  0  0  0  0  0  0
   -6.8589   16.2749    0.0000 C   0  0  0  0  0  0  0  0  0  0  0  0
   -7.5697   17.5958    0.0000 C   0  0  0  0  0  0  0  0  0  0  0  0
   -6.7812   18.8718    0.0000 C   0  0  0  0  0  0  0  0  0  0  0  0
   -5.8338   18.6052    0.0000 O   0  0  0  0  0  0  0  0  0  0  0  0
   -7.4920   20.1927    0.0000 O   0  0  0  0  0  0  0  0  0  0  0  0
   -5.4796   16.8645    0.0000 N   0  0  0  0  0  0  0  0  0  0  0  0
   -4.0172   17.1982    0.0000 C   0  0  0  0  0  0  0  0  0  0  0  0
   -4.2186   18.6847    0.0000 O   0  0  0  0  0  0  0  0  0  0  0  0
   -2.5187   17.2655    0.0000 C   0  0  0  0  0  0  0  0  0  0  0  0
   -2.4514   18.7640    0.0000 C   0  0  0  0  0  0  0  0  0  0  0  0
   -1.1200   19.4550    0.0000 C   0  0  0  0  0  0  0  0  0  0  0  0
    0.1440   18.6475    0.0000 C   0  0  0  0  0  0  0  0  0  0  0  0
    1.4754   19.3384    0.0000 C   0  0  0  0  0  0  0  0  0  0  0  0
    1.5427   20.8369    0.0000 C   0  0  0  0  0  0  0  0  0  0  0  0
    0.2786   21.6444    0.0000 C   0  0  0  0  0  0  0  0  0  0  0  0
   -1.0527   20.9535    0.0000 C   0  0  0  0  0  0  0  0  0  0  0  0
   -3.7155   19.5715    0.0000 C   0  0  0  0  0  0  0  0  0  0  0  0
   -5.0469   18.8806    0.0000 C   0  0  0  0  0  0  0  0  0  0  0  0
   -6.3110   19.6881    0.0000 C   0  0  0  0  0  0  0  0  0  0  0  0
   -6.2437   21.1866    0.0000 C   0  0  0  0  0  0  0  0  0  0  0  0
   -4.9123   21.8776    0.0000 C   0  0  0  0  0  0  0  0  0  0  0  0
   -3.6482   21.0700    0.0000 C   0  0  0  0  0  0  0  0  0  0  0  0
   -1.0323   17.0642    0.0000 N   0  0  0  0  0  0  0  0  0  0  0  0
    0.3943   16.6007    0.0000 C   0  0  0  0  0  0  0  0  0  0  0  0
    0.9838   17.9799    0.0000 O   0  0  0  0  0  0  0  0  0  0  0  0
    1.7152   15.8899    0.0000 C   0  0  0  0  0  0  0  0  0  0  0  0
    2.5415   17.1417    0.0000 C   0  0  0  0  0  0  0  0  0  0  0  0
    4.0389   17.0520    0.0000 O   0  0  0  0  0  0  0  0  0  0  0  0
    2.8879   14.9546    0.0000 N   0  0  0  0  0  0  0  0  0  0  0  0
    3.8748   13.8250    0.0000 C   0  0  0  0  0  0  0  0  0  0  0  0
    5.0884   14.7067    0.0000 O   0  0  0  0  0  0  0  0  0  0  0  0
  1  2  1  0
  2  3  1  0
  3  4  1  6
  3  5  1  0
  5  6  1  6
  6  7  1  0
  7  8  2  0
  7  9  1  0
  9 10  1  6
 10 11  1  0
 11 12  2  0
 12 13  1  0
 13 14  2  0
 14 15  1  0
 14 16  1  0
 16 17  2  0
  9 18  1  0
 18 19  1  0
 19 20  2  0
 19 21  1  0
 21 22  1  6
 22 23  1  0
 23 24  1  0
 23 25  1  0
 21 26  1  0
 26 27  1  0
 27 28  2  0
 27 29  1  0
 29 30  1  6
 30 31  1  0
 31 32  1  0
 32 33  1  0
 33 34  1  0
 34 35  2  0
 34 36  1  0
 36 37  1  1
 37 38  1  0
 38 39  2  0
 38 40  1  0
 40 41  1  1
 41 42  1  0
 42 43  1  0
 43 44  1  0
 44 45  1  0
 45 46  2  0
 45 47  1  0
 40 48  1  0
 48 49  1  0
 49 50  2  0
 49 51  1  0
 51 52  1  1
 52 53  1  0
 53 54  1  0
 54 55  1  0
 55 56  1  0
 56 57  2  0
 56 58  1  0
 51 59  1  0
 59 60  1  0
 60 61  1  0
 60 62  2  0
 36 63  1  0
 63 64  1  0
 64 65  1  0
 65 66  1  0
 66 67  1  0
 67 68  1  1
 68 69  2  0
 68 70  1  0
 70 71  1  0
 71 72  1  6
 72 73  1  0
 73 74  1  0
 74 75  1  0
 75 76  1  0
 76 77  2  0
 76 78  1  0
 71 79  1  0
 79 80  2  0
 79 81  1  0
 81 82  1  0
 82 83  1  6
 83 84  1  0
 84 85  1  0
 85 86  1  0
 86 87  1  0
 87 88  2  0
 87 89  1  0
 82 90  1  0
 90 91  1  0
 90 92  2  0
 67 93  1  0
 93 94  1  0
 94 95  2  0
 94 96  1  0
 96 97  1  6
 97 98  1  0
 97 99  1  0
 96100  1  0
100101  1  0
101102  2  0
101103  1  0
103104  1  6
104105  1  0
105106  1  0
106107  1  0
107108  1  0
108109  2  0
108110  1  0
110111  1  6
111112  1  0
112113  2  0
112114  1  0
110115  1  0
115116  1  0
116117  2  0
116118  1  0
118119  1  6
119120  1  0
120121  2  0
121122  1  0
122123  2  0
123124  1  0
124125  2  0
119126  1  0
126127  2  0
127128  1  0
128129  2  0
129130  1  0
130131  2  0
118132  1  0
132133  1  0
133134  2  0
133135  1  0
135136  1  6
136137  1  0
135138  1  0
138139  1  0
139140  2  0
139  5  1  0
 17 11  1  0
 33 29  1  0
107103  1  0
125120  1  0
131126  1  0
M  END
>  <molecule_chembl_id>  (216) 
CHEMBL5195518

>  <canonical_smiles>  (216) 
CC[C@H](C)[C@@H]1NC(=O)[C@H](Cc2ccc(O)cc2)NC(=O)[C@H](CC(C)C)NC(=O)[C@@H]2CCCN2C(=O)[C@@H](NC(=O)[C@H](CCCNC(=N)N)NC(=O)[C@H](CCCNC(=N)N)NC(C)=O)CSSC[C@@H](C(=O)N[C@@H](CCCNC(=N)N)C(=O)N[C@@H](CCCNC(=N)N)C(N)=O)NC(=O)[C@H](C(C)C)NC(=O)[C@@H]2CCCN2C(=O)[C@H](CC(=O)O)NC(=O)[C@H](C(c2ccccc2)c2ccccc2)NC(=O)[C@H](CO)NC1=O

>  <pchembl_value_mean>  (216) 
6.6

>  <inchi>  (216) 
InChI=1S/C90H138N28O20S2/c1-8-49(6)70-83(135)111-62(44-119)78(130)116-71(68(52-21-11-9-12-22-52)53-23-13-10-14-24-53)84(136)110-61(43-67(122)123)85(137)117-39-20-30-66(117)81(133)114-69(48(4)5)82(134)112-63(79(131)107-57(27-17-37-102-89(96)97)74(126)105-55(72(91)124)25-15-35-100-87(92)93)45-139-140-46-64(113-75(127)58(28-18-38-103-90(98)99)106-73(125)56(104-50(7)120)26-16-36-101-88(94)95)86(138)118-40-19-29-65(118)80(132)109-59(41-47(2)3)76(128)108-60(77(129)115-70)42-51-31-33-54(121)34-32-51/h9-14,21-24,31-34,47-49,55-66,68-71,119,121H,8,15-20,25-30,35-46H2,1-7H3,(H2,91,124)(H,104,120)(H,105,126)(H,106,125)(H,107,131)(H,108,128)(H,109,132)(H,110,136)(H,111,135)(H,112,134)(H,113,127)(H,114,133)(H,115,129)(H,116,130)(H,122,123)(H4,92,93,100)(H4,94,95,101)(H4,96,97,102)(H4,98,99,103)/t49-,55-,56-,57-,58-,59-,60-,61-,62-,63-,64-,65-,66-,69-,70-,71-/m0/s1

$$$$

     RDKit          2D

 28 31  0  0  0  0  0  0  0  0999 V2000
    5.2500   -1.2990    0.0000 C   0  0  0  0  0  0  0  0  0  0  0  0
    3.7500   -1.2990    0.0000 C   0  0  0  0  0  0  0  0  0  0  0  0
    3.0000    0.0000    0.0000 C   0  0  0  0  0  0  0  0  0  0  0  0
    3.7500    1.2990    0.0000 O   0  0  0  0  0  0  0  0  0  0  0  0
    1.5000    0.0000    0.0000 N   0  0  0  0  0  0  0  0  0  0  0  0
    0.7500   -1.2990    0.0000 C   0  0  0  0  0  0  0  0  0  0  0  0
   -0.7500   -1.2990    0.0000 C   0  0  0  0  0  0  0  0  0  0  0  0
   -1.5000    0.0000    0.0000 N   0  0  0  0  0  0  0  0  0  0  0  0
   -2.9832   -0.2236    0.0000 C   0  0  0  0  0  0  0  0  0  0  0  0
   -4.0828    0.7967    0.0000 C   0  0  0  0  0  0  0  0  0  0  0  0
   -5.4343    0.1459    0.0000 C   0  0  0  0  0  0  0  0  0  0  0  0
   -6.6736    0.9909    0.0000 C   0  0  0  0  0  0  0  0  0  0  0  0
   -6.5615    2.4867    0.0000 C   0  0  0  0  0  0  0  0  0  0  0  0
   -7.8009    3.3316    0.0000 C   0  0  0  0  0  0  0  0  0  0  0  0
   -7.6888    4.8274    0.0000 C   0  0  0  0  0  0  0  0  0  0  0  0
   -6.3374    5.4783    0.0000 O   0  0  0  0  0  0  0  0  0  0  0  0
   -8.9282    5.6724    0.0000 C   0  0  0  0  0  0  0  0  0  0  0  0
  -10.2796    5.0216    0.0000 C   0  0  0  0  0  0  0  0  0  0  0  0
  -10.3917    3.5258    0.0000 C   0  0  0  0  0  0  0  0  0  0  0  0
   -9.1524    2.6808    0.0000 C   0  0  0  0  0  0  0  0  0  0  0  0
   -9.2644    1.1850    0.0000 F   0  0  0  0  0  0  0  0  0  0  0  0
   -5.2101    3.1375    0.0000 C   0  0  0  0  0  0  0  0  0  0  0  0
   -5.0980    4.6333    0.0000 Cl  0  0  0  0  0  0  0  0  0  0  0  0
   -3.9707    2.2925    0.0000 C   0  0  0  0  0  0  0  0  0  0  0  0
   -2.7314    3.1375    0.0000 O   0  0  0  0  0  0  0  0  0  0  0  0
   -1.2980    2.6953    0.0000 C   0  0  0  0  0  0  0  0  0  0  0  0
   -0.7500    1.2990    0.0000 C   0  0  0  0  0  0  0  0  0  0  0  0
    0.7500    1.2990    0.0000 C   0  0  0  0  0  0  0  0  0  0  0  0
  1  2  2  0
  2  3  1  0
  3  4  2  0
  3  5  1  0
  5  6  1  0
  6  7  1  0
  7  8  1  0
  8  9  1  0
  9 10  1  0
 10 11  2  0
 11 12  1  0
 12 13  2  0
 13 14  1  0
 14 15  2  0
 15 16  1  0
 15 17  1  0
 17 18  2  0
 18 19  1  0
 19 20  2  0
 20 21  1  0
 13 22  1  0
 22 23  1  0
 22 24  2  0
 24 25  1  0
 25 26  1  0
 27 26  1  1
 27 28  1  0
 28  5  1  0
 27  8  1  0
 24 10  1  0
 20 14  1  0
M  END
>  <molecule_chembl_id>  (217) 
CHEMBL5434277

>  <canonical_smiles>  (217) 
C=CC(=O)N1CCN2Cc3ccc(-c4c(O)cccc4F)c(Cl)c3OC[C@H]2C1

>  <pchembl_value_mean>  (217) 
6.64

>  <inchi>  (217) 
InChI=1S/C21H20ClFN2O3/c1-2-18(27)25-9-8-24-10-13-6-7-15(19-16(23)4-3-5-17(19)26)20(22)21(13)28-12-14(24)11-25/h2-7,14,26H,1,8-12H2/t14-/m1/s1

$$$$

     RDKit          2D

156165  0  0  0  0  0  0  0  0999 V2000
   15.4792   -0.1915    0.0000 C   0  0  0  0  0  0  0  0  0  0  0  0
   13.9792   -0.1915    0.0000 C   0  0  0  0  0  0  0  0  0  0  0  0
   13.8112   -1.6821    0.0000 N   0  0  0  0  0  0  0  0  0  0  0  0
   13.3158   -3.0979    0.0000 C   0  0  0  0  0  0  0  0  0  0  0  0
   14.6672   -3.7487    0.0000 O   0  0  0  0  0  0  0  0  0  0  0  0
   12.5177   -4.3680    0.0000 C   0  0  0  0  0  0  0  0  0  0  0  0
   13.6905   -5.3032    0.0000 C   0  0  0  0  0  0  0  0  0  0  0  0
   13.4669   -6.7865    0.0000 C   0  0  0  0  0  0  0  0  0  0  0  0
   12.0706   -7.3345    0.0000 C   0  0  0  0  0  0  0  0  0  0  0  0
   11.8471   -8.8177    0.0000 C   0  0  0  0  0  0  0  0  0  0  0  0
   13.0198   -9.7530    0.0000 C   0  0  0  0  0  0  0  0  0  0  0  0
   14.4161   -9.2050    0.0000 C   0  0  0  0  0  0  0  0  0  0  0  0
   14.6397   -7.7217    0.0000 C   0  0  0  0  0  0  0  0  0  0  0  0
   11.4571   -5.4287    0.0000 N   0  0  0  0  0  0  0  0  0  0  0  0
   10.1870   -6.2267    0.0000 C   0  0  0  0  0  0  0  0  0  0  0  0
   10.8378   -7.5782    0.0000 O   0  0  0  0  0  0  0  0  0  0  0  0
    8.7712   -6.7221    0.0000 C   0  0  0  0  0  0  0  0  0  0  0  0
    7.2806   -6.8901    0.0000 C   0  0  0  0  0  0  0  0  0  0  0  0
    5.7900   -6.7221    0.0000 C   0  0  0  0  0  0  0  0  0  0  0  0
    4.3742   -6.2267    0.0000 C   0  0  0  0  0  0  0  0  0  0  0  0
    3.1041   -5.4287    0.0000 C   0  0  0  0  0  0  0  0  0  0  0  0
    2.0435   -4.3680    0.0000 N   0  0  0  0  0  0  0  0  0  0  0  0
    1.2454   -3.0979    0.0000 C   0  0  0  0  0  0  0  0  0  0  0  0
   -0.1060   -3.7487    0.0000 O   0  0  0  0  0  0  0  0  0  0  0  0
    0.7500   -1.2990    0.0000 C   0  0  0  0  0  0  0  0  0  0  0  0
    1.5000    0.0000    0.0000 C   0  0  0  0  0  0  0  0  0  0  0  0
    0.7500    1.2990    0.0000 C   0  0  0  0  0  0  0  0  0  0  0  0
   -0.7500    1.2990    0.0000 C   0  0  0  0  0  0  0  0  0  0  0  0
   -1.5000    0.0000    0.0000 C   0  0  0  0  0  0  0  0  0  0  0  0
   -0.7500   -1.2990    0.0000 C   0  0  0  0  0  0  0  0  0  0  0  0
   -2.3002   -1.3623    0.0000 C   0  0  0  0  0  0  0  0  0  0  0  0
   -3.7181    0.3198    0.0000 O   0  0  0  0  0  0  0  0  0  0  0  0
   -3.2158   -2.3372    0.0000 N   0  0  0  0  0  0  0  0  0  0  0  0
   -3.8819   -3.4970    0.0000 C   0  0  0  0  0  0  0  0  0  0  0  0
   -5.9040   -2.6302    0.0000 C   0  0  0  0  0  0  0  0  0  0  0  0
   -6.0815   -1.1408    0.0000 C   0  0  0  0  0  0  0  0  0  0  0  0
   -4.8803   -0.2423    0.0000 C   0  0  0  0  0  0  0  0  0  0  0  0
   -5.0578    1.2471    0.0000 C   0  0  0  0  0  0  0  0  0  0  0  0
   -6.4365    1.8381    0.0000 C   0  0  0  0  0  0  0  0  0  0  0  0
   -6.6140    3.3276    0.0000 C   0  0  0  0  0  0  0  0  0  0  0  0
   -7.9927    3.9186    0.0000 C   0  0  0  0  0  0  0  0  0  0  0  0
   -9.1939    3.0201    0.0000 C   0  0  0  0  0  0  0  0  0  0  0  0
   -9.0163    1.5307    0.0000 C   0  0  0  0  0  0  0  0  0  0  0  0
   -7.6377    0.9397    0.0000 C   0  0  0  0  0  0  0  0  0  0  0  0
   -7.4602   -0.5498    0.0000 C   0  0  0  0  0  0  0  0  0  0  0  0
   -4.2626   -4.7792    0.0000 C   0  0  0  0  0  0  0  0  0  0  0  0
   -6.4300   -4.4021    0.0000 O   0  0  0  0  0  0  0  0  0  0  0  0
   -4.3373   -6.1146    0.0000 N   0  0  0  0  0  0  0  0  0  0  0  0
   -4.1021   -7.4312    0.0000 C   0  0  0  0  0  0  0  0  0  0  0  0
   -6.2082   -8.0669    0.0000 C   0  0  0  0  0  0  0  0  0  0  0  0
   -7.3016   -7.0400    0.0000 O   0  0  0  0  0  0  0  0  0  0  0  0
   -3.5696   -8.6581    0.0000 C   0  0  0  0  0  0  0  0  0  0  0  0
   -5.4723   -9.7624    0.0000 O   0  0  0  0  0  0  0  0  0  0  0  0
   -2.7685   -9.7291    0.0000 N   0  0  0  0  0  0  0  0  0  0  0  0
   -1.7420  -10.5864    0.0000 C   0  0  0  0  0  0  0  0  0  0  0  0
   -2.9467  -12.4273    0.0000 C   0  0  0  0  0  0  0  0  0  0  0  0
   -4.4444  -12.3434    0.0000 C   0  0  0  0  0  0  0  0  0  0  0  0
   -5.2658  -13.5985    0.0000 N   0  0  0  0  0  0  0  0  0  0  0  0
   -5.1206  -11.0045    0.0000 O   0  0  0  0  0  0  0  0  0  0  0  0
   -0.5454  -11.1840    0.0000 C   0  0  0  0  0  0  0  0  0  0  0  0
   -1.2931  -13.2530    0.0000 O   0  0  0  0  0  0  0  0  0  0  0  0
    0.7567  -11.4895    0.0000 N   0  0  0  0  0  0  0  0  0  0  0  0
    2.0942  -11.4864    0.0000 C   0  0  0  0  0  0  0  0  0  0  0  0
    2.3546  -13.6710    0.0000 C   0  0  0  0  0  0  0  0  0  0  0  0
    1.1534  -14.5694    0.0000 C   0  0  0  0  0  0  0  0  0  0  0  0
   -0.2253  -13.9785    0.0000 C   0  0  0  0  0  0  0  0  0  0  0  0
   -1.4264  -14.8769    0.0000 C   0  0  0  0  0  0  0  0  0  0  0  0
   -1.2489  -16.3664    0.0000 C   0  0  0  0  0  0  0  0  0  0  0  0
   -2.4501  -17.2648    0.0000 C   0  0  0  0  0  0  0  0  0  0  0  0
   -2.2725  -18.7543    0.0000 C   0  0  0  0  0  0  0  0  0  0  0  0
   -0.8939  -19.3453    0.0000 C   0  0  0  0  0  0  0  0  0  0  0  0
    0.3073  -18.4468    0.0000 C   0  0  0  0  0  0  0  0  0  0  0  0
    0.1298  -16.9574    0.0000 C   0  0  0  0  0  0  0  0  0  0  0  0
    1.3309  -16.0589    0.0000 C   0  0  0  0  0  0  0  0  0  0  0  0
    3.3949  -11.1751    0.0000 C   0  0  0  0  0  0  0  0  0  0  0  0
    4.1520  -13.2407    0.0000 O   0  0  0  0  0  0  0  0  0  0  0  0
    4.5887  -10.5721    0.0000 N   0  0  0  0  0  0  0  0  0  0  0  0
    5.6114   -9.7101    0.0000 C   0  0  0  0  0  0  0  0  0  0  0  0
    7.2150  -11.2162    0.0000 C   0  0  0  0  0  0  0  0  0  0  0  0
    6.8724  -12.6765    0.0000 C   0  0  0  0  0  0  0  0  0  0  0  0
    7.9658  -13.7034    0.0000 C   0  0  0  0  0  0  0  0  0  0  0  0
    9.4018  -13.2699    0.0000 C   0  0  0  0  0  0  0  0  0  0  0  0
    9.7444  -11.8096    0.0000 C   0  0  0  0  0  0  0  0  0  0  0  0
    8.6510  -10.7827    0.0000 C   0  0  0  0  0  0  0  0  0  0  0  0
    6.4076   -8.6354    0.0000 C   0  0  0  0  0  0  0  0  0  0  0  0
    8.3154   -9.7311    0.0000 O   0  0  0  0  0  0  0  0  0  0  0  0
    8.1358   -8.0625    0.0000 N   0  0  0  0  0  0  0  0  0  0  0  0
    1.2454    2.7149    0.0000 C   0  0  0  0  0  0  0  0  0  0  0  0
    0.0946    3.1047    0.0000 O   0  0  0  0  0  0  0  0  0  0  0  0
    2.0435    3.9849    0.0000 N   0  0  0  0  0  0  0  0  0  0  0  0
    3.1041    5.0456    0.0000 C   0  0  0  0  0  0  0  0  0  0  0  0
    4.3742    5.8437    0.0000 C   0  0  0  0  0  0  0  0  0  0  0  0
    3.7234    7.1951    0.0000 C   0  0  0  0  0  0  0  0  0  0  0  0
    2.2276    7.3072    0.0000 O   0  0  0  0  0  0  0  0  0  0  0  0
    4.5684    8.4345    0.0000 N   0  0  0  0  0  0  0  0  0  0  0  0
    3.9175    9.7859    0.0000 C   0  0  0  0  0  0  0  0  0  0  0  0
    4.7625   11.0253    0.0000 C   0  0  0  0  0  0  0  0  0  0  0  0
    4.1117   12.3767    0.0000 C   0  0  0  0  0  0  0  0  0  0  0  0
    4.9567   13.6161    0.0000 C   0  0  0  0  0  0  0  0  0  0  0  0
    4.3059   14.9675    0.0000 N   0  0  0  0  0  0  0  0  0  0  0  0
    6.4525   13.5040    0.0000 O   0  0  0  0  0  0  0  0  0  0  0  0
    2.4217    9.8980    0.0000 C   0  0  0  0  0  0  0  0  0  0  0  0
    1.5768    8.6587    0.0000 O   0  0  0  0  0  0  0  0  0  0  0  0
    1.7709   11.2495    0.0000 N   0  0  0  0  0  0  0  0  0  0  0  0
    0.2751   11.3616    0.0000 C   0  0  0  0  0  0  0  0  0  0  0  0
   -0.3757   12.7130    0.0000 C   0  0  0  0  0  0  0  0  0  0  0  0
   -1.8715   12.8251    0.0000 C   0  0  0  0  0  0  0  0  0  0  0  0
   -2.5224   14.1766    0.0000 C   0  0  0  0  0  0  0  0  0  0  0  0
   -4.0182   14.2887    0.0000 N   0  0  0  0  0  0  0  0  0  0  0  0
   -4.6690   15.6401    0.0000 C   0  0  0  0  0  0  0  0  0  0  0  0
   -3.8240   16.8795    0.0000 N   0  0  0  0  0  0  0  0  0  0  0  0
   -6.1648   15.7522    0.0000 N   0  0  0  0  0  0  0  0  0  0  0  0
   -0.5699   10.1222    0.0000 C   0  0  0  0  0  0  0  0  0  0  0  0
    0.0810    8.7708    0.0000 O   0  0  0  0  0  0  0  0  0  0  0  0
   -2.0657   10.2343    0.0000 N   0  0  0  0  0  0  0  0  0  0  0  0
   -2.9107    8.9949    0.0000 C   0  0  0  0  0  0  0  0  0  0  0  0
   -4.4065    9.1070    0.0000 C   0  0  0  0  0  0  0  0  0  0  0  0
   -5.2514    7.8677    0.0000 C   0  0  0  0  0  0  0  0  0  0  0  0
   -6.7473    7.9798    0.0000 C   0  0  0  0  0  0  0  0  0  0  0  0
   -7.5922    6.7404    0.0000 C   0  0  0  0  0  0  0  0  0  0  0  0
   -6.9414    5.3890    0.0000 C   0  0  0  0  0  0  0  0  0  0  0  0
   -5.4456    5.2769    0.0000 C   0  0  0  0  0  0  0  0  0  0  0  0
   -4.6006    6.5162    0.0000 C   0  0  0  0  0  0  0  0  0  0  0  0
   -2.2598    7.6435    0.0000 C   0  0  0  0  0  0  0  0  0  0  0  0
   -0.7640    7.5314    0.0000 O   0  0  0  0  0  0  0  0  0  0  0  0
   -3.1048    6.4041    0.0000 N   0  0  0  0  0  0  0  0  0  0  0  0
   -2.4540    5.0527    0.0000 C   0  0  0  0  0  0  0  0  0  0  0  0
   -3.2990    3.8133    0.0000 C   0  0  0  0  0  0  0  0  0  0  0  0
   -0.9582    4.9406    0.0000 C   0  0  0  0  0  0  0  0  0  0  0  0
   -0.1132    6.1799    0.0000 N   0  0  0  0  0  0  0  0  0  0  0  0
   -0.5684    3.7898    0.0000 O   0  0  0  0  0  0  0  0  0  0  0  0
    5.7900    6.3391    0.0000 N   0  0  0  0  0  0  0  0  0  0  0  0
    7.2806    6.5070    0.0000 C   0  0  0  0  0  0  0  0  0  0  0  0
    7.2806    8.0070    0.0000 O   0  0  0  0  0  0  0  0  0  0  0  0
    8.7712    6.3391    0.0000 C   0  0  0  0  0  0  0  0  0  0  0  0
    9.1050    7.8015    0.0000 C   0  0  0  0  0  0  0  0  0  0  0  0
   10.5383    8.2436    0.0000 C   0  0  0  0  0  0  0  0  0  0  0  0
   10.8721    9.7060    0.0000 C   0  0  0  0  0  0  0  0  0  0  0  0
   12.3055   10.1481    0.0000 N   0  0  0  0  0  0  0  0  0  0  0  0
   12.6392   11.6105    0.0000 C   0  0  0  0  0  0  0  0  0  0  0  0
   11.5397   12.6308    0.0000 N   0  0  0  0  0  0  0  0  0  0  0  0
   14.0726   12.0527    0.0000 N   0  0  0  0  0  0  0  0  0  0  0  0
   10.1870    5.8437    0.0000 N   0  0  0  0  0  0  0  0  0  0  0  0
   11.4571    5.0456    0.0000 C   0  0  0  0  0  0  0  0  0  0  0  0
   12.3923    6.2184    0.0000 O   0  0  0  0  0  0  0  0  0  0  0  0
   12.5177    3.9849    0.0000 C   0  0  0  0  0  0  0  0  0  0  0  0
   13.6905    4.9202    0.0000 C   0  0  0  0  0  0  0  0  0  0  0  0
   15.0868    4.3722    0.0000 C   0  0  0  0  0  0  0  0  0  0  0  0
   16.2596    5.3074    0.0000 C   0  0  0  0  0  0  0  0  0  0  0  0
   17.6559    4.7594    0.0000 N   0  0  0  0  0  0  0  0  0  0  0  0
   18.8286    5.6946    0.0000 C   0  0  0  0  0  0  0  0  0  0  0  0
   18.6050    7.1779    0.0000 N   0  0  0  0  0  0  0  0  0  0  0  0
   20.2249    5.1466    0.0000 N   0  0  0  0  0  0  0  0  0  0  0  0
   13.3158    2.7149    0.0000 N   0  0  0  0  0  0  0  0  0  0  0  0
   13.8112    1.2990    0.0000 C   0  0  0  0  0  0  0  0  0  0  0  0
   15.2736    1.6328    0.0000 O   0  0  0  0  0  0  0  0  0  0  0  0
  2  1  1  6
  2  3  1  0
  3  4  1  0
  4  5  2  0
  4  6  1  0
  6  7  1  1
  7  8  1  0
  8  9  2  0
  9 10  1  0
 10 11  2  0
 11 12  1  0
 12 13  2  0
  6 14  1  0
 14 15  1  0
 15 16  2  0
 15 17  1  0
 17 18  1  0
 18 19  1  0
 19 20  1  0
 20 21  1  0
 21 22  1  0
 22 23  1  0
 23 24  2  0
 23 25  1  0
 25 26  1  0
 26 27  2  0
 27 28  1  0
 28 29  2  0
 29 30  1  0
 29 31  1  0
 31 32  2  0
 31 33  1  0
 33 34  1  0
 34 35  1  1
 35 36  1  0
 36 37  2  0
 37 38  1  0
 38 39  2  0
 39 40  1  0
 40 41  2  0
 41 42  1  0
 42 43  2  0
 43 44  1  0
 44 45  2  0
 34 46  1  0
 46 47  2  0
 46 48  1  0
 48 49  1  0
 49 50  1  6
 50 51  1  0
 49 52  1  0
 52 53  2  0
 52 54  1  0
 54 55  1  0
 55 56  1  6
 56 57  1  0
 57 58  1  0
 57 59  2  0
 55 60  1  0
 60 61  2  0
 60 62  1  0
 62 63  1  0
 63 64  1  1
 64 65  1  0
 65 66  2  0
 66 67  1  0
 67 68  2  0
 68 69  1  0
 69 70  2  0
 70 71  1  0
 71 72  2  0
 72 73  1  0
 73 74  2  0
 63 75  1  0
 75 76  2  0
 75 77  1  0
 77 78  1  0
 78 79  1  6
 79 80  2  0
 80 81  1  0
 81 82  2  0
 82 83  1  0
 83 84  2  0
 78 85  1  0
 85 86  2  0
 85 87  1  0
 27 88  1  0
 88 89  2  0
 88 90  1  0
 90 91  1  0
 91 92  1  0
 92 93  1  1
 93 94  2  0
 93 95  1  0
 95 96  1  0
 96 97  1  6
 97 98  1  0
 98 99  1  0
 99100  1  0
 99101  2  0
 96102  1  0
102103  2  0
102104  1  0
104105  1  0
105106  1  1
106107  1  0
107108  1  0
108109  1  0
109110  1  0
110111  2  0
110112  1  0
105113  1  0
113114  2  0
113115  1  0
115116  1  0
116117  1  6
117118  1  0
118119  2  0
119120  1  0
120121  2  0
121122  1  0
122123  2  0
116124  1  0
124125  2  0
124126  1  0
126127  1  0
127128  1  1
127129  1  0
129130  1  0
129131  2  0
 92132  1  0
132133  1  0
133134  2  0
133135  1  0
135136  1  6
136137  1  0
137138  1  0
138139  1  0
139140  1  0
140141  2  0
140142  1  0
135143  1  0
143144  1  0
144145  2  0
144146  1  0
146147  1  1
147148  1  0
148149  1  0
149150  1  0
150151  1  0
151152  2  0
151153  1  0
146154  1  0
154155  1  0
155156  2  0
155  2  1  0
 13  8  1  0
 17 87  1  1
123118  1  0
 30 25  2  0
 45 36  1  0
 74 65  1  0
 84 79  1  0
 44 39  1  0
 73 68  1  0
M  END
>  <molecule_chembl_id>  (218) 
CHEMBL4849298

>  <canonical_smiles>  (218) 
C[C@@H]1NC(=O)[C@@H](Cc2ccccc2)NC(=O)[C@@H]2CCCCNC(=O)c3cc(cc(c3)C(=O)N[C@H](Cc3ccc4ccccc4c3)C(=O)N[C@@H](CO)C(=O)N[C@@H](CC(N)=O)C(=O)N[C@H](Cc3ccc4ccccc4c3)C(=O)N[C@@H](c3ccccc3)C(=O)N2)C(=O)NC[C@@H](C(=O)N[C@@H](CCC(N)=O)C(=O)N[C@H](CCCNC(=N)N)C(=O)N[C@@H](Cc2ccccc2)C(=O)N[C@H](C)C(N)=O)NC(=O)[C@H](CCCNC(=N)N)NC(=O)[C@@H](CCCNC(=N)N)NC1=O

>  <pchembl_value_mean>  (218) 
6.64

>  <inchi>  (218) 
InChI=1S/C106H133N29O21/c1-57(86(109)139)121-96(149)76(47-59-21-6-3-7-22-59)129-93(146)73(33-19-43-118-105(112)113)125-95(148)75(39-40-83(107)137)126-101(154)81-55-120-89(142)69-51-68-52-70(53-69)90(143)128-78(49-61-35-37-63-25-12-14-29-66(63)45-61)98(151)134-82(56-136)102(155)132-80(54-84(108)138)99(152)131-79(50-62-36-38-64-26-13-15-30-67(64)46-62)100(153)135-85(65-27-10-5-11-28-65)103(156)127-71(31-16-17-41-116-88(68)141)92(145)130-77(48-60-23-8-4-9-24-60)97(150)122-58(2)87(140)123-72(32-18-42-117-104(110)111)91(144)124-74(94(147)133-81)34-20-44-119-106(114)115/h3-15,21-30,35-38,45-46,51-53,57-58,71-82,85,136H,16-20,31-34,39-44,47-50,54-56H2,1-2H3,(H2,107,137)(H2,108,138)(H2,109,139)(H,116,141)(H,120,142)(H,121,149)(H,122,150)(H,123,140)(H,124,144)(H,125,148)(H,126,154)(H,127,156)(H,128,143)(H,129,146)(H,130,145)(H,131,152)(H,132,155)(H,133,147)(H,134,151)(H,135,153)(H4,110,111,117)(H4,112,113,118)(H4,114,115,119)/t57-,58+,71+,72-,73-,74+,75+,76+,77-,78-,79-,80+,81+,82+,85+/m1/s1

$$$$

     RDKit          2D

 39 43  0  0  0  0  0  0  0  0999 V2000
   -9.7500   -1.2990    0.0000 C   0  0  0  0  0  0  0  0  0  0  0  0
   -8.2500   -1.2990    0.0000 C   0  0  0  0  0  0  0  0  0  0  0  0
   -7.5000   -2.5981    0.0000 C   0  0  0  0  0  0  0  0  0  0  0  0
   -8.2500   -3.8971    0.0000 O   0  0  0  0  0  0  0  0  0  0  0  0
   -6.0000   -2.5981    0.0000 N   0  0  0  0  0  0  0  0  0  0  0  0
   -5.2500   -1.2990    0.0000 C   0  0  0  0  0  0  0  0  0  0  0  0
   -3.7500   -1.2990    0.0000 C   0  0  0  0  0  0  0  0  0  0  0  0
   -3.0000   -2.5981    0.0000 N   0  0  0  0  0  0  0  0  0  0  0  0
   -1.5000   -2.5981    0.0000 C   0  0  0  0  0  0  0  0  0  0  0  0
   -0.7500   -3.8971    0.0000 N   0  0  0  0  0  0  0  0  0  0  0  0
    0.7500   -3.8971    0.0000 C   0  0  0  0  0  0  0  0  0  0  0  0
    1.1772   -4.9037    0.0000 O   0  0  0  0  0  0  0  0  0  0  0  0
    1.5000   -2.5981    0.0000 N   0  0  0  0  0  0  0  0  0  0  0  0
    3.0000   -2.5981    0.0000 C   0  0  0  0  0  0  0  0  0  0  0  0
    3.7500   -1.2990    0.0000 C   0  0  0  0  0  0  0  0  0  0  0  0
    5.2500   -1.2990    0.0000 C   0  0  0  0  0  0  0  0  0  0  0  0
    6.0000   -2.5981    0.0000 C   0  0  0  0  0  0  0  0  0  0  0  0
    5.2500   -3.8971    0.0000 C   0  0  0  0  0  0  0  0  0  0  0  0
    3.7500   -3.8971    0.0000 C   0  0  0  0  0  0  0  0  0  0  0  0
    3.0000   -5.1962    0.0000 C   0  0  0  0  0  0  0  0  0  0  0  0
    3.7500   -6.4952    0.0000 C   0  0  0  0  0  0  0  0  0  0  0  0
    1.9147   -5.3294    0.0000 C   0  0  0  0  0  0  0  0  0  0  0  0
    0.7500   -1.2990    0.0000 C   0  0  0  0  0  0  0  0  0  0  0  0
    1.5000    0.0000    0.0000 C   0  0  0  0  0  0  0  0  0  0  0  0
    0.7500    1.2990    0.0000 C   0  0  0  0  0  0  0  0  0  0  0  0
    1.5000    2.5981    0.0000 C   0  0  0  0  0  0  0  0  0  0  0  0
    3.0000    2.5981    0.0000 C   0  0  0  0  0  0  0  0  0  0  0  0
    3.7500    3.8971    0.0000 C   0  0  0  0  0  0  0  0  0  0  0  0
    3.0000    5.1962    0.0000 C   0  0  0  0  0  0  0  0  0  0  0  0
    1.5000    5.1962    0.0000 C   0  0  0  0  0  0  0  0  0  0  0  0
    0.7500    3.8971    0.0000 C   0  0  0  0  0  0  0  0  0  0  0  0
   -0.7500    3.8971    0.0000 Cl  0  0  0  0  0  0  0  0  0  0  0  0
   -0.7500    1.2990    0.0000 C   0  0  0  0  0  0  0  0  0  0  0  0
   -1.5000    2.5981    0.0000 Cl  0  0  0  0  0  0  0  0  0  0  0  0
   -1.5000    0.0000    0.0000 C   0  0  0  0  0  0  0  0  0  0  0  0
   -0.7500   -1.2990    0.0000 C   0  0  0  0  0  0  0  0  0  0  0  0
   -3.7500   -3.8971    0.0000 C   0  0  0  0  0  0  0  0  0  0  0  0
   -3.0000   -5.1962    0.0000 C   0  0  0  0  0  0  0  0  0  0  0  0
   -5.2500   -3.8971    0.0000 C   0  0  0  0  0  0  0  0  0  0  0  0
  1  2  2  0
  2  3  1  0
  3  4  2  0
  3  5  1  0
  5  6  1  0
  6  7  1  0
  7  8  1  0
  8  9  1  0
  9 10  2  0
 10 11  1  0
 11 12  2  0
 11 13  1  0
 13 14  1  0
 14 15  2  0
 15 16  1  0
 16 17  2  0
 17 18  1  0
 18 19  2  0
 19 20  1  0
 20 21  1  0
 20 22  1  0
 13 23  1  0
 23 24  2  0
 24 25  1  0
 25 26  1  0
 26 27  2  0
 27 28  1  0
 28 29  2  0
 29 30  1  0
 30 31  2  0
 31 32  1  0
 25 33  2  0
 33 34  1  0
 33 35  1  0
 35 36  2  0
  8 37  1  0
 37 38  1  1
 37 39  1  0
 39  5  1  0
 36  9  1  0
 19 14  1  0
 36 23  1  0
 31 26  1  0
M  END
>  <molecule_chembl_id>  (219) 
CHEMBL4454645

>  <canonical_smiles>  (219) 
C=CC(=O)N1CCN(c2nc(=O)n(-c3ccccc3C(C)C)c3cc(-c4ccccc4Cl)c(Cl)cc23)[C@@H](C)C1

>  <pchembl_value_mean>  (219) 
6.66

>  <inchi>  (219) 
InChI=1S/C31H30Cl2N4O2/c1-5-29(38)35-14-15-36(20(4)18-35)30-24-16-26(33)23(22-11-6-8-12-25(22)32)17-28(24)37(31(39)34-30)27-13-9-7-10-21(27)19(2)3/h5-13,16-17,19-20H,1,14-15,18H2,2-4H3/t20-/m0/s1

$$$$

     RDKit          2D

 31 35  0  0  0  0  0  0  0  0999 V2000
    5.2500   -1.2990    0.0000 C   0  0  0  0  0  0  0  0  0  0  0  0
    3.7500   -1.2990    0.0000 C   0  0  0  0  0  0  0  0  0  0  0  0
    3.0000    0.0000    0.0000 C   0  0  0  0  0  0  0  0  0  0  0  0
    3.7500    1.2990    0.0000 O   0  0  0  0  0  0  0  0  0  0  0  0
    1.5000    0.0000    0.0000 N   0  0  0  0  0  0  0  0  0  0  0  0
    0.7500   -1.2990    0.0000 C   0  0  0  0  0  0  0  0  0  0  0  0
   -0.7500   -1.2990    0.0000 C   0  0  0  0  0  0  0  0  0  0  0  0
   -1.5000    0.0000    0.0000 N   0  0  0  0  0  0  0  0  0  0  0  0
   -3.0000    0.0000    0.0000 C   0  0  0  0  0  0  0  0  0  0  0  0
   -3.7500    1.2990    0.0000 C   0  0  0  0  0  0  0  0  0  0  0  0
   -5.2500    1.2990    0.0000 C   0  0  0  0  0  0  0  0  0  0  0  0
   -6.0000    0.0000    0.0000 N   0  0  0  0  0  0  0  0  0  0  0  0
   -5.2500   -1.2990    0.0000 C   0  0  0  0  0  0  0  0  0  0  0  0
   -6.0000   -2.5981    0.0000 C   0  0  0  0  0  0  0  0  0  0  0  0
   -5.2500   -3.8971    0.0000 C   0  0  0  0  0  0  0  0  0  0  0  0
   -6.0000   -5.1962    0.0000 C   0  0  0  0  0  0  0  0  0  0  0  0
   -7.5000   -5.1962    0.0000 C   0  0  0  0  0  0  0  0  0  0  0  0
   -8.2500   -3.8971    0.0000 O   0  0  0  0  0  0  0  0  0  0  0  0
   -8.2500   -6.4952    0.0000 C   0  0  0  0  0  0  0  0  0  0  0  0
   -7.5000   -7.7942    0.0000 C   0  0  0  0  0  0  0  0  0  0  0  0
   -6.0000   -7.7942    0.0000 C   0  0  0  0  0  0  0  0  0  0  0  0
   -5.2500   -6.4952    0.0000 C   0  0  0  0  0  0  0  0  0  0  0  0
   -3.7500   -6.4952    0.0000 F   0  0  0  0  0  0  0  0  0  0  0  0
   -3.7500   -3.8971    0.0000 C   0  0  0  0  0  0  0  0  0  0  0  0
   -3.0000   -5.1962    0.0000 Cl  0  0  0  0  0  0  0  0  0  0  0  0
   -3.0000   -2.5981    0.0000 C   0  0  0  0  0  0  0  0  0  0  0  0
   -3.7500   -1.2990    0.0000 C   0  0  0  0  0  0  0  0  0  0  0  0
   -3.0000    2.5981    0.0000 O   0  0  0  0  0  0  0  0  0  0  0  0
   -1.5000    2.5981    0.0000 C   0  0  0  0  0  0  0  0  0  0  0  0
   -0.7500    1.2990    0.0000 C   0  0  0  0  0  0  0  0  0  0  0  0
    0.7500    1.2990    0.0000 C   0  0  0  0  0  0  0  0  0  0  0  0
  1  2  2  0
  2  3  1  0
  3  4  2  0
  3  5  1  0
  5  6  1  0
  6  7  1  0
  7  8  1  0
  8  9  1  0
  9 10  2  0
 10 11  1  0
 11 12  2  0
 12 13  1  0
 13 14  2  0
 14 15  1  0
 15 16  1  0
 16 17  2  0
 17 18  1  0
 17 19  1  0
 19 20  2  0
 20 21  1  0
 21 22  2  0
 22 23  1  0
 15 24  2  0
 24 25  1  0
 24 26  1  0
 26 27  2  0
 10 28  1  0
 28 29  1  0
 30 29  1  1
 30 31  1  0
 31  5  1  0
 30  8  1  0
 27  9  1  0
 27 13  1  0
 22 16  1  0
M  END
>  <molecule_chembl_id>  (220) 
CHEMBL4456368

>  <canonical_smiles>  (220) 
C=CC(=O)N1CCN2c3c(cnc4cc(-c5c(O)cccc5F)c(Cl)cc34)OC[C@H]2C1

>  <pchembl_value_mean>  (220) 
6.68

>  <inchi>  (220) 
InChI=1S/C23H19ClFN3O3/c1-2-21(30)27-6-7-28-13(11-27)12-31-20-10-26-18-9-14(16(24)8-15(18)23(20)28)22-17(25)4-3-5-19(22)29/h2-5,8-10,13,29H,1,6-7,11-12H2/t13-/m1/s1

$$$$

     RDKit          2D

 41 48  0  0  0  0  0  0  0  0999 V2000
    3.7500   -1.2990    0.0000 C   0  0  0  0  0  0  0  0  0  0  0  0
    3.0000    0.0000    0.0000 C   0  0  0  0  0  0  0  0  0  0  0  0
    1.5000    0.0000    0.0000 C   0  0  0  0  0  0  0  0  0  0  0  0
    0.7500   -1.2990    0.0000 C   0  0  0  0  0  0  0  0  0  0  0  0
   -0.7500   -1.2990    0.0000 C   0  0  0  0  0  0  0  0  0  0  0  0
   -1.5000    0.0000    0.0000 C   0  0  0  0  0  0  0  0  0  0  0  0
   -0.7500    1.2990    0.0000 C   0  0  0  0  0  0  0  0  0  0  0  0
   -1.5000    2.5981    0.0000 C   0  0  0  0  0  0  0  0  0  0  0  0
   -0.7500    3.8971    0.0000 C   0  0  0  0  0  0  0  0  0  0  0  0
    0.7500    3.8971    0.0000 C   0  0  0  0  0  0  0  0  0  0  0  0
    1.5000    2.5981    0.0000 C   0  0  0  0  0  0  0  0  0  0  0  0
    3.0000    2.5981    0.0000 C   0  0  0  0  0  0  0  0  0  0  0  0
    3.7500    1.2990    0.0000 N   0  0  0  0  0  0  0  0  0  0  0  0
    5.2500    1.2990    0.0000 C   0  0  0  0  0  0  0  0  0  0  0  0
    6.0000    2.5981    0.0000 C   0  0  0  0  0  0  0  0  0  0  0  0
    7.5000    2.5981    0.0000 C   0  0  0  0  0  0  0  0  0  0  0  0
    8.2500    1.2990    0.0000 N   0  0  0  0  0  0  0  0  0  0  0  0
    9.7500    1.2990    0.0000 C   0  0  0  0  0  0  0  0  0  0  0  0
   10.5000   -0.0000    0.0000 C   0  0  0  0  0  0  0  0  0  0  0  0
   10.8119   -1.4672    0.0000 C   0  0  0  0  0  0  0  0  0  0  0  0
    9.5128   -2.2172    0.0000 C   0  0  0  0  0  0  0  0  0  0  0  0
    8.3981   -1.2135    0.0000 C   0  0  0  0  0  0  0  0  0  0  0  0
    7.5000   -0.0000    0.0000 C   0  0  0  0  0  0  0  0  0  0  0  0
    9.0082    0.1568    0.0000 N   0  0  0  0  0  0  0  0  0  0  0  0
    8.2500    3.8971    0.0000 N   0  0  0  0  0  0  0  0  0  0  0  0
    7.5000    5.1962    0.0000 C   0  0  0  0  0  0  0  0  0  0  0  0
    8.2500    6.4952    0.0000 O   0  0  0  0  0  0  0  0  0  0  0  0
    9.7500    6.4952    0.0000 C   0  0  0  0  0  0  0  0  0  0  0  0
   10.5000    7.7942    0.0000 C   0  0  0  0  0  0  0  0  0  0  0  0
    9.0328    8.1061    0.0000 C   0  0  0  0  0  0  0  0  0  0  0  0
    8.8760    9.5979    0.0000 C   0  0  0  0  0  0  0  0  0  0  0  0
   10.2463   10.2080    0.0000 C   0  0  0  0  0  0  0  0  0  0  0  0
   11.2500    9.0933    0.0000 N   0  0  0  0  0  0  0  0  0  0  0  0
   12.7172    8.7814    0.0000 C   0  0  0  0  0  0  0  0  0  0  0  0
   12.8740    7.2896    0.0000 C   0  0  0  0  0  0  0  0  0  0  0  0
   11.5037    6.6795    0.0000 C   0  0  0  0  0  0  0  0  0  0  0  0
    6.0000    5.1962    0.0000 N   0  0  0  0  0  0  0  0  0  0  0  0
    5.2500    3.8971    0.0000 C   0  0  0  0  0  0  0  0  0  0  0  0
    3.7500    3.8971    0.0000 C   0  0  0  0  0  0  0  0  0  0  0  0
    3.0000    5.1962    0.0000 F   0  0  0  0  0  0  0  0  0  0  0  0
    0.7500    1.2990    0.0000 C   0  0  0  0  0  0  0  0  0  0  0  0
  1  2  1  0
  2  3  1  0
  3  4  2  0
  4  5  1  0
  5  6  2  0
  6  7  1  0
  7  8  2  0
  8  9  1  0
  9 10  2  0
 10 11  1  0
 11 12  1  0
 12 13  2  0
 13 14  1  0
 14 15  2  0
 15 16  1  0
 16 17  1  0
 17 18  1  0
 19 18  1  1
 19 20  1  0
 20 21  1  0
 22 21  1  1
 22 23  1  0
 22 24  1  0
 16 25  2  0
 25 26  1  0
 26 27  1  0
 27 28  1  0
 28 29  1  0
 29 30  1  0
 30 31  1  0
 31 32  1  0
 32 33  1  0
 33 34  1  0
 34 35  1  0
 35 36  1  0
 26 37  2  0
 37 38  1  0
 38 39  2  0
 39 40  1  0
 11 41  2  0
 41  3  1  0
 41  7  1  0
 39 12  1  0
 38 15  1  0
 23 17  1  0
 33 29  1  0
 24 19  1  0
 36 29  1  0
M  END
>  <molecule_chembl_id>  (221) 
CHEMBL5091301

>  <canonical_smiles>  (221) 
CCc1cccc2cccc(-c3ncc4c(N5C[C@H]6CC[C@@H](C5)N6)nc(OCC56CCCN5CCC6)nc4c3F)c12

>  <pchembl_value_mean>  (221) 
6.7

>  <inchi>  (221) 
InChI=1S/C33H37FN6O/c1-2-21-7-3-8-22-9-4-10-25(27(21)22)29-28(34)30-26(17-35-29)31(39-18-23-11-12-24(19-39)36-23)38-32(37-30)41-20-33-13-5-15-40(33)16-6-14-33/h3-4,7-10,17,23-24,36H,2,5-6,11-16,18-20H2,1H3/t23-,24+

$$$$

     RDKit          2D

142148  0  0  0  0  0  0  0  0999 V2000
   -3.6169   17.2540    0.0000 C   0  0  0  0  0  0  0  0  0  0  0  0
   -4.3277   15.9331    0.0000 C   0  0  0  0  0  0  0  0  0  0  0  0
   -3.5392   14.6571    0.0000 C   0  0  0  0  0  0  0  0  0  0  0  0
   -2.0399   14.7020    0.0000 C   0  0  0  0  0  0  0  0  0  0  0  0
   -4.2500   13.3362    0.0000 C   0  0  0  0  0  0  0  0  0  0  0  0
   -2.9982   12.5099    0.0000 N   0  0  0  0  0  0  0  0  0  0  0  0
   -1.9140   11.4733    0.0000 C   0  0  0  0  0  0  0  0  0  0  0  0
   -0.7844   12.4602    0.0000 O   0  0  0  0  0  0  0  0  0  0  0  0
   -1.0323   10.2598    0.0000 C   0  0  0  0  0  0  0  0  0  0  0  0
    0.2554   11.0291    0.0000 C   0  0  0  0  0  0  0  0  0  0  0  0
    1.5655   10.2986    0.0000 C   0  0  0  0  0  0  0  0  0  0  0  0
    1.5879    8.7988    0.0000 C   0  0  0  0  0  0  0  0  0  0  0  0
    2.8981    8.0683    0.0000 C   0  0  0  0  0  0  0  0  0  0  0  0
    4.1857    8.8377    0.0000 C   0  0  0  0  0  0  0  0  0  0  0  0
    5.4958    8.1072    0.0000 C   0  0  0  0  0  0  0  0  0  0  0  0
    5.5183    6.6074    0.0000 C   0  0  0  0  0  0  0  0  0  0  0  0
    6.8284    5.8769    0.0000 C   0  0  0  0  0  0  0  0  0  0  0  0
    8.1161    6.6462    0.0000 C   0  0  0  0  0  0  0  0  0  0  0  0
    8.0936    8.1461    0.0000 C   0  0  0  0  0  0  0  0  0  0  0  0
    6.7835    8.8765    0.0000 C   0  0  0  0  0  0  0  0  0  0  0  0
    4.1633   10.3375    0.0000 C   0  0  0  0  0  0  0  0  0  0  0  0
    2.8532   11.0680    0.0000 C   0  0  0  0  0  0  0  0  0  0  0  0
   -0.3815    8.9083    0.0000 N   0  0  0  0  0  0  0  0  0  0  0  0
    0.0176    7.4624    0.0000 C   0  0  0  0  0  0  0  0  0  0  0  0
    1.4935    7.7302    0.0000 O   0  0  0  0  0  0  0  0  0  0  0  0
    0.1521    5.9684    0.0000 C   0  0  0  0  0  0  0  0  0  0  0  0
    1.6521    5.9684    0.0000 C   0  0  0  0  0  0  0  0  0  0  0  0
    2.4021    4.6694    0.0000 C   0  0  0  0  0  0  0  0  0  0  0  0
    3.9021    4.6694    0.0000 C   0  0  0  0  0  0  0  0  0  0  0  0
    1.6521    3.3703    0.0000 C   0  0  0  0  0  0  0  0  0  0  0  0
    0.0176    4.4744    0.0000 N   0  0  0  0  0  0  0  0  0  0  0  0
   -0.3815    3.0285    0.0000 C   0  0  0  0  0  0  0  0  0  0  0  0
    1.0229    2.5014    0.0000 O   0  0  0  0  0  0  0  0  0  0  0  0
   -1.0323    1.6771    0.0000 C   0  0  0  0  0  0  0  0  0  0  0  0
    0.3943    1.2135    0.0000 C   0  0  0  0  0  0  0  0  0  0  0  0
    1.2760    0.0000    0.0000 C   0  0  0  0  0  0  0  0  0  0  0  0
    0.3943   -1.2135    0.0000 C   0  0  0  0  0  0  0  0  0  0  0  0
   -1.0323   -0.7500    0.0000 C   0  0  0  0  0  0  0  0  0  0  0  0
   -1.0323    0.7500    0.0000 C   0  0  0  0  0  0  0  0  0  0  0  0
   -1.9140    0.4635    0.0000 N   0  0  0  0  0  0  0  0  0  0  0  0
   -2.9982   -0.5731    0.0000 C   0  0  0  0  0  0  0  0  0  0  0  0
   -2.0629   -1.7458    0.0000 O   0  0  0  0  0  0  0  0  0  0  0  0
   -4.2500   -1.3994    0.0000 C   0  0  0  0  0  0  0  0  0  0  0  0
   -3.5392   -2.7203    0.0000 N   0  0  0  0  0  0  0  0  0  0  0  0
   -4.3277   -3.9963    0.0000 C   0  0  0  0  0  0  0  0  0  0  0  0
   -5.8271   -3.9515    0.0000 O   0  0  0  0  0  0  0  0  0  0  0  0
   -3.6169   -5.3172    0.0000 C   0  0  0  0  0  0  0  0  0  0  0  0
   -4.4055   -6.5932    0.0000 C   0  0  0  0  0  0  0  0  0  0  0  0
   -3.6947   -7.9141    0.0000 C   0  0  0  0  0  0  0  0  0  0  0  0
   -4.4832   -9.1902    0.0000 C   0  0  0  0  0  0  0  0  0  0  0  0
   -3.7724  -10.5110    0.0000 N   0  0  0  0  0  0  0  0  0  0  0  0
   -4.5609  -11.7871    0.0000 C   0  0  0  0  0  0  0  0  0  0  0  0
   -6.0602  -11.7422    0.0000 N   0  0  0  0  0  0  0  0  0  0  0  0
   -3.8501  -13.1080    0.0000 N   0  0  0  0  0  0  0  0  0  0  0  0
   -2.1176   -5.3621    0.0000 N   0  0  0  0  0  0  0  0  0  0  0  0
   -1.4068   -6.6830    0.0000 C   0  0  0  0  0  0  0  0  0  0  0  0
   -2.1953   -7.9590    0.0000 O   0  0  0  0  0  0  0  0  0  0  0  0
    0.0925   -6.7279    0.0000 C   0  0  0  0  0  0  0  0  0  0  0  0
    0.8033   -8.0488    0.0000 C   0  0  0  0  0  0  0  0  0  0  0  0
    2.3027   -8.0936    0.0000 C   0  0  0  0  0  0  0  0  0  0  0  0
    3.0135   -9.4145    0.0000 C   0  0  0  0  0  0  0  0  0  0  0  0
    4.5128   -9.4594    0.0000 N   0  0  0  0  0  0  0  0  0  0  0  0
    5.2236  -10.7803    0.0000 C   0  0  0  0  0  0  0  0  0  0  0  0
    4.4351  -12.0563    0.0000 N   0  0  0  0  0  0  0  0  0  0  0  0
    6.7229  -10.8252    0.0000 N   0  0  0  0  0  0  0  0  0  0  0  0
    0.8810   -5.4518    0.0000 N   0  0  0  0  0  0  0  0  0  0  0  0
    2.3804   -5.4967    0.0000 C   0  0  0  0  0  0  0  0  0  0  0  0
    3.1689   -4.2207    0.0000 C   0  0  0  0  0  0  0  0  0  0  0  0
    3.0912   -6.8176    0.0000 O   0  0  0  0  0  0  0  0  0  0  0  0
   -5.6293   -1.9890    0.0000 C   0  0  0  0  0  0  0  0  0  0  0  0
   -7.0917   -2.3227    0.0000 S   0  0  0  0  0  0  0  0  0  0  0  0
   -8.5902   -2.3900    0.0000 S   0  0  0  0  0  0  0  0  0  0  0  0
  -10.0766   -2.1887    0.0000 C   0  0  0  0  0  0  0  0  0  0  0  0
  -11.5032   -1.7252    0.0000 C   0  0  0  0  0  0  0  0  0  0  0  0
  -12.0927   -3.1044    0.0000 C   0  0  0  0  0  0  0  0  0  0  0  0
  -11.1930   -4.3046    0.0000 O   0  0  0  0  0  0  0  0  0  0  0  0
  -13.5820   -3.2835    0.0000 N   0  0  0  0  0  0  0  0  0  0  0  0
  -14.1715   -4.6628    0.0000 C   0  0  0  0  0  0  0  0  0  0  0  0
  -15.6608   -4.8419    0.0000 C   0  0  0  0  0  0  0  0  0  0  0  0
  -16.2504   -6.2212    0.0000 C   0  0  0  0  0  0  0  0  0  0  0  0
  -17.7396   -6.4003    0.0000 C   0  0  0  0  0  0  0  0  0  0  0  0
  -18.3292   -7.7796    0.0000 N   0  0  0  0  0  0  0  0  0  0  0  0
  -19.8184   -7.9587    0.0000 C   0  0  0  0  0  0  0  0  0  0  0  0
  -20.7182   -6.7585    0.0000 N   0  0  0  0  0  0  0  0  0  0  0  0
  -20.4080   -9.3380    0.0000 N   0  0  0  0  0  0  0  0  0  0  0  0
  -13.2718   -5.8630    0.0000 C   0  0  0  0  0  0  0  0  0  0  0  0
  -11.7825   -5.6839    0.0000 O   0  0  0  0  0  0  0  0  0  0  0  0
  -13.8613   -7.2423    0.0000 N   0  0  0  0  0  0  0  0  0  0  0  0
  -12.9616   -8.4425    0.0000 C   0  0  0  0  0  0  0  0  0  0  0  0
  -13.5512   -9.8218    0.0000 C   0  0  0  0  0  0  0  0  0  0  0  0
  -12.6514  -11.0220    0.0000 C   0  0  0  0  0  0  0  0  0  0  0  0
  -13.2410  -12.4013    0.0000 C   0  0  0  0  0  0  0  0  0  0  0  0
  -12.3412  -13.6015    0.0000 N   0  0  0  0  0  0  0  0  0  0  0  0
  -12.9308  -14.9808    0.0000 C   0  0  0  0  0  0  0  0  0  0  0  0
  -14.4200  -15.1599    0.0000 N   0  0  0  0  0  0  0  0  0  0  0  0
  -12.0310  -16.1810    0.0000 N   0  0  0  0  0  0  0  0  0  0  0  0
  -11.4723   -8.2634    0.0000 C   0  0  0  0  0  0  0  0  0  0  0  0
  -10.5726   -9.4636    0.0000 N   0  0  0  0  0  0  0  0  0  0  0  0
  -10.8828   -6.8841    0.0000 O   0  0  0  0  0  0  0  0  0  0  0  0
  -12.8241   -1.0144    0.0000 N   0  0  0  0  0  0  0  0  0  0  0  0
  -13.9968   -0.0791    0.0000 C   0  0  0  0  0  0  0  0  0  0  0  0
  -15.0334   -1.1633    0.0000 O   0  0  0  0  0  0  0  0  0  0  0  0
  -14.9837    1.0505    0.0000 C   0  0  0  0  0  0  0  0  0  0  0  0
  -16.1973    0.1688    0.0000 C   0  0  0  0  0  0  0  0  0  0  0  0
  -17.5676    0.7789    0.0000 C   0  0  0  0  0  0  0  0  0  0  0  0
  -16.0405   -1.3230    0.0000 C   0  0  0  0  0  0  0  0  0  0  0  0
  -15.7531    2.3382    0.0000 N   0  0  0  0  0  0  0  0  0  0  0  0
  -16.2802    3.7425    0.0000 C   0  0  0  0  0  0  0  0  0  0  0  0
  -17.7261    3.3435    0.0000 O   0  0  0  0  0  0  0  0  0  0  0  0
  -16.5480    5.2184    0.0000 C   0  0  0  0  0  0  0  0  0  0  0  0
  -17.9746    4.7549    0.0000 C   0  0  0  0  0  0  0  0  0  0  0  0
  -18.8563    5.9684    0.0000 C   0  0  0  0  0  0  0  0  0  0  0  0
  -17.9746    7.1819    0.0000 C   0  0  0  0  0  0  0  0  0  0  0  0
  -16.5480    6.7184    0.0000 N   0  0  0  0  0  0  0  0  0  0  0  0
  -16.2802    8.1943    0.0000 C   0  0  0  0  0  0  0  0  0  0  0  0
  -17.7261    8.5934    0.0000 O   0  0  0  0  0  0  0  0  0  0  0  0
  -15.7531    9.5987    0.0000 C   0  0  0  0  0  0  0  0  0  0  0  0
  -17.1045   10.2495    0.0000 C   0  0  0  0  0  0  0  0  0  0  0  0
  -17.2166   11.7453    0.0000 C   0  0  0  0  0  0  0  0  0  0  0  0
  -15.9773   12.5903    0.0000 O   0  0  0  0  0  0  0  0  0  0  0  0
  -18.5681   12.3961    0.0000 O   0  0  0  0  0  0  0  0  0  0  0  0
  -14.9837   10.8863    0.0000 N   0  0  0  0  0  0  0  0  0  0  0  0
  -13.9968   12.0159    0.0000 C   0  0  0  0  0  0  0  0  0  0  0  0
  -15.0334   13.1001    0.0000 O   0  0  0  0  0  0  0  0  0  0  0  0
  -12.8241   12.9512    0.0000 C   0  0  0  0  0  0  0  0  0  0  0  0
  -13.6504   14.2030    0.0000 C   0  0  0  0  0  0  0  0  0  0  0  0
  -12.9795   15.5446    0.0000 C   0  0  0  0  0  0  0  0  0  0  0  0
  -11.4822   15.6343    0.0000 C   0  0  0  0  0  0  0  0  0  0  0  0
  -10.8112   16.9759    0.0000 C   0  0  0  0  0  0  0  0  0  0  0  0
  -11.6375   18.2277    0.0000 C   0  0  0  0  0  0  0  0  0  0  0  0
  -10.9666   19.5693    0.0000 O   0  0  0  0  0  0  0  0  0  0  0  0
  -13.1348   18.1380    0.0000 C   0  0  0  0  0  0  0  0  0  0  0  0
  -13.8058   16.7965    0.0000 C   0  0  0  0  0  0  0  0  0  0  0  0
  -11.5032   13.6620    0.0000 N   0  0  0  0  0  0  0  0  0  0  0  0
  -10.0766   14.1255    0.0000 C   0  0  0  0  0  0  0  0  0  0  0  0
  -10.4104   15.5879    0.0000 O   0  0  0  0  0  0  0  0  0  0  0  0
   -8.5902   14.3269    0.0000 C   0  0  0  0  0  0  0  0  0  0  0  0
   -8.6575   15.8253    0.0000 C   0  0  0  0  0  0  0  0  0  0  0  0
   -7.3934   16.6329    0.0000 O   0  0  0  0  0  0  0  0  0  0  0  0
   -7.0917   14.2596    0.0000 N   0  0  0  0  0  0  0  0  0  0  0  0
   -5.6293   13.9258    0.0000 C   0  0  0  0  0  0  0  0  0  0  0  0
   -5.1658   15.3524    0.0000 O   0  0  0  0  0  0  0  0  0  0  0  0
  1  2  1  0
  2  3  1  0
  3  4  1  6
  3  5  1  0
  5  6  1  6
  6  7  1  0
  7  8  2  0
  7  9  1  0
  9 10  1  6
 10 11  1  0
 11 12  2  0
 12 13  1  0
 13 14  2  0
 14 15  1  0
 15 16  2  0
 16 17  1  0
 17 18  2  0
 18 19  1  0
 19 20  2  0
 14 21  1  0
 21 22  2  0
  9 23  1  0
 23 24  1  0
 24 25  2  0
 24 26  1  0
 26 27  1  6
 27 28  1  0
 28 29  1  0
 28 30  1  0
 26 31  1  0
 31 32  1  0
 32 33  2  0
 34 32  1  6
 34 35  1  0
 35 36  1  1
 36 37  1  0
 38 37  1  1
 38 39  1  0
 38 40  1  0
 40 41  1  0
 41 42  2  0
 41 43  1  0
 43 44  1  1
 44 45  1  0
 45 46  2  0
 45 47  1  0
 47 48  1  1
 48 49  1  0
 49 50  1  0
 50 51  1  0
 51 52  1  0
 52 53  2  0
 52 54  1  0
 47 55  1  0
 55 56  1  0
 56 57  2  0
 56 58  1  0
 58 59  1  1
 59 60  1  0
 60 61  1  0
 61 62  1  0
 62 63  1  0
 63 64  2  0
 63 65  1  0
 58 66  1  0
 66 67  1  0
 67 68  1  0
 67 69  2  0
 43 70  1  0
 70 71  1  0
 71 72  1  0
 72 73  1  0
 73 74  1  0
 74 75  1  1
 75 76  2  0
 75 77  1  0
 77 78  1  0
 78 79  1  6
 79 80  1  0
 80 81  1  0
 81 82  1  0
 82 83  1  0
 83 84  2  0
 83 85  1  0
 78 86  1  0
 86 87  2  0
 86 88  1  0
 88 89  1  0
 89 90  1  6
 90 91  1  0
 91 92  1  0
 92 93  1  0
 93 94  1  0
 94 95  2  0
 94 96  1  0
 89 97  1  0
 97 98  1  0
 97 99  2  0
 74100  1  0
100101  1  0
101102  2  0
101103  1  0
103104  1  6
104105  1  0
104106  1  0
103107  1  0
107108  1  0
108109  2  0
108110  1  0
110111  1  6
111112  1  0
112113  1  0
113114  1  0
114115  1  0
115116  2  0
115117  1  0
117118  1  6
118119  1  0
119120  2  0
119121  1  0
117122  1  0
122123  1  0
123124  2  0
123125  1  0
125126  1  6
126127  1  0
127128  2  0
128129  1  0
129130  2  0
130131  1  0
130132  1  0
132133  2  0
125134  1  0
134135  1  0
135136  2  0
135137  1  0
137138  1  6
138139  1  0
137140  1  0
140141  1  0
141142  2  0
141  5  1  0
 22 11  1  0
 40 34  1  0
114110  1  0
133127  1  0
 20 15  1  0
 39 35  1  0
M  END
>  <molecule_chembl_id>  (222) 
CHEMBL5204036

>  <canonical_smiles>  (222) 
CC[C@H](C)[C@@H]1NC(=O)[C@H](Cc2ccc(-c3ccccc3)cc2)NC(=O)[C@H](CC(C)C)NC(=O)[C@@H]2[C@H]3CC[C@H](C3)N2C(=O)[C@@H](NC(=O)[C@H](CCCNC(=N)N)NC(=O)[C@H](CCCNC(=N)N)NC(C)=O)CSSC[C@@H](C(=O)N[C@@H](CCCNC(=N)N)C(=O)N[C@@H](CCCNC(=N)N)C(N)=O)NC(=O)[C@H](C(C)C)NC(=O)[C@@H]2CCCN2C(=O)[C@H](CC(=O)O)NC(=O)[C@H](Cc2ccc(O)cc2)NC(=O)[C@H](CO)NC1=O

>  <pchembl_value_mean>  (222) 
6.7

>  <inchi>  (222) 
InChI=1S/C92H140N28O20S2/c1-8-49(6)72-85(137)114-66(44-121)81(133)111-63(41-52-26-32-57(123)33-27-52)79(131)113-65(43-70(124)125)87(139)119-38-16-23-69(119)83(135)117-71(48(4)5)84(136)115-67(82(134)109-60(21-14-36-104-91(98)99)76(128)107-58(74(93)126)19-12-34-102-89(94)95)45-141-142-46-68(116-77(129)61(22-15-37-105-92(100)101)108-75(127)59(106-50(7)122)20-13-35-103-90(96)97)88(140)120-56-31-30-55(42-56)73(120)86(138)112-62(39-47(2)3)78(130)110-64(80(132)118-72)40-51-24-28-54(29-25-51)53-17-10-9-11-18-53/h9-11,17-18,24-29,32-33,47-49,55-56,58-69,71-73,121,123H,8,12-16,19-23,30-31,34-46H2,1-7H3,(H2,93,126)(H,106,122)(H,107,128)(H,108,127)(H,109,134)(H,110,130)(H,111,133)(H,112,138)(H,113,131)(H,114,137)(H,115,136)(H,116,129)(H,117,135)(H,118,132)(H,124,125)(H4,94,95,102)(H4,96,97,103)(H4,98,99,104)(H4,100,101,105)/t49-,55-,56+,58-,59-,60-,61-,62-,63-,64-,65-,66-,67-,68-,69-,71-,72-,73-/m0/s1

$$$$

     RDKit          2D

137141  0  0  0  0  0  0  0  0999 V2000
    7.4592   15.3348    0.0000 C   0  0  0  0  0  0  0  0  0  0  0  0
    6.1077   14.6840    0.0000 C   0  0  0  0  0  0  0  0  0  0  0  0
    5.9956   13.1882    0.0000 C   0  0  0  0  0  0  0  0  0  0  0  0
    7.2350   12.3432    0.0000 C   0  0  0  0  0  0  0  0  0  0  0  0
    4.6442   12.5373    0.0000 C   0  0  0  0  0  0  0  0  0  0  0  0
    5.1713   11.1330    0.0000 N   0  0  0  0  0  0  0  0  0  0  0  0
    5.4391    9.6571    0.0000 C   0  0  0  0  0  0  0  0  0  0  0  0
    6.9331    9.7915    0.0000 O   0  0  0  0  0  0  0  0  0  0  0  0
    5.4391    8.1571    0.0000 C   0  0  0  0  0  0  0  0  0  0  0  0
    6.9331    8.0226    0.0000 C   0  0  0  0  0  0  0  0  0  0  0  0
    7.5636    6.6616    0.0000 C   0  0  0  0  0  0  0  0  0  0  0  0
    6.7002    5.4350    0.0000 C   0  0  0  0  0  0  0  0  0  0  0  0
    7.3307    4.0740    0.0000 C   0  0  0  0  0  0  0  0  0  0  0  0
    8.8247    3.9395    0.0000 C   0  0  0  0  0  0  0  0  0  0  0  0
    9.4552    2.5785    0.0000 O   0  0  0  0  0  0  0  0  0  0  0  0
    9.6881    5.1661    0.0000 C   0  0  0  0  0  0  0  0  0  0  0  0
    9.0576    6.5271    0.0000 C   0  0  0  0  0  0  0  0  0  0  0  0
    5.1713    6.6812    0.0000 N   0  0  0  0  0  0  0  0  0  0  0  0
    4.6442    5.2768    0.0000 C   0  0  0  0  0  0  0  0  0  0  0  0
    5.9956    4.6260    0.0000 O   0  0  0  0  0  0  0  0  0  0  0  0
    3.8748    3.9892    0.0000 C   0  0  0  0  0  0  0  0  0  0  0  0
    5.0884    3.1075    0.0000 C   0  0  0  0  0  0  0  0  0  0  0  0
    4.9316    1.6157    0.0000 C   0  0  0  0  0  0  0  0  0  0  0  0
    6.1451    0.7340    0.0000 C   0  0  0  0  0  0  0  0  0  0  0  0
    3.5613    1.0056    0.0000 C   0  0  0  0  0  0  0  0  0  0  0  0
    2.8879    2.8596    0.0000 N   0  0  0  0  0  0  0  0  0  0  0  0
    1.7152    1.9243    0.0000 C   0  0  0  0  0  0  0  0  0  0  0  0
    2.5415    0.6725    0.0000 O   0  0  0  0  0  0  0  0  0  0  0  0
    0.3943    1.2135    0.0000 C   0  0  0  0  0  0  0  0  0  0  0  0
    1.2760    0.0000    0.0000 C   0  0  0  0  0  0  0  0  0  0  0  0
    0.3943   -1.2135    0.0000 C   0  0  0  0  0  0  0  0  0  0  0  0
   -1.0323   -0.7500    0.0000 C   0  0  0  0  0  0  0  0  0  0  0  0
   -1.0323    0.7500    0.0000 N   0  0  0  0  0  0  0  0  0  0  0  0
   -2.5187    0.5487    0.0000 C   0  0  0  0  0  0  0  0  0  0  0  0
   -2.4514   -0.9498    0.0000 O   0  0  0  0  0  0  0  0  0  0  0  0
   -4.0172    0.6159    0.0000 C   0  0  0  0  0  0  0  0  0  0  0  0
   -4.2186   -0.8705    0.0000 N   0  0  0  0  0  0  0  0  0  0  0  0
   -5.6065   -1.4393    0.0000 C   0  0  0  0  0  0  0  0  0  0  0  0
   -6.7931   -0.5217    0.0000 O   0  0  0  0  0  0  0  0  0  0  0  0
   -5.8079   -2.9257    0.0000 C   0  0  0  0  0  0  0  0  0  0  0  0
   -7.1958   -3.4946    0.0000 C   0  0  0  0  0  0  0  0  0  0  0  0
   -7.3972   -4.9810    0.0000 C   0  0  0  0  0  0  0  0  0  0  0  0
   -8.7851   -5.5498    0.0000 C   0  0  0  0  0  0  0  0  0  0  0  0
   -8.9865   -7.0363    0.0000 N   0  0  0  0  0  0  0  0  0  0  0  0
  -10.3744   -7.6051    0.0000 C   0  0  0  0  0  0  0  0  0  0  0  0
  -11.5610   -6.6875    0.0000 N   0  0  0  0  0  0  0  0  0  0  0  0
  -10.5758   -9.0915    0.0000 N   0  0  0  0  0  0  0  0  0  0  0  0
   -4.6213   -3.8433    0.0000 N   0  0  0  0  0  0  0  0  0  0  0  0
   -4.8226   -5.3298    0.0000 C   0  0  0  0  0  0  0  0  0  0  0  0
   -6.2106   -5.8986    0.0000 O   0  0  0  0  0  0  0  0  0  0  0  0
   -3.6360   -6.2473    0.0000 C   0  0  0  0  0  0  0  0  0  0  0  0
   -3.8373   -7.7338    0.0000 C   0  0  0  0  0  0  0  0  0  0  0  0
   -2.6507   -8.6513    0.0000 C   0  0  0  0  0  0  0  0  0  0  0  0
   -2.8521  -10.1378    0.0000 C   0  0  0  0  0  0  0  0  0  0  0  0
   -1.6655  -11.0554    0.0000 N   0  0  0  0  0  0  0  0  0  0  0  0
   -1.8668  -12.5418    0.0000 C   0  0  0  0  0  0  0  0  0  0  0  0
   -3.2548  -13.1106    0.0000 N   0  0  0  0  0  0  0  0  0  0  0  0
   -0.6802  -13.4594    0.0000 N   0  0  0  0  0  0  0  0  0  0  0  0
   -2.2480   -5.6785    0.0000 N   0  0  0  0  0  0  0  0  0  0  0  0
   -1.0614   -6.5961    0.0000 C   0  0  0  0  0  0  0  0  0  0  0  0
    0.3265   -6.0272    0.0000 C   0  0  0  0  0  0  0  0  0  0  0  0
   -1.2628   -8.0825    0.0000 O   0  0  0  0  0  0  0  0  0  0  0  0
   -5.4796    0.9497    0.0000 C   0  0  0  0  0  0  0  0  0  0  0  0
   -6.8589    1.5393    0.0000 S   0  0  0  0  0  0  0  0  0  0  0  0
   -8.1107    2.3656    0.0000 S   0  0  0  0  0  0  0  0  0  0  0  0
   -9.1949    3.4022    0.0000 C   0  0  0  0  0  0  0  0  0  0  0  0
  -10.0766    4.6157    0.0000 C   0  0  0  0  0  0  0  0  0  0  0  0
  -11.3643    3.8464    0.0000 C   0  0  0  0  0  0  0  0  0  0  0  0
  -11.3418    2.3466    0.0000 O   0  0  0  0  0  0  0  0  0  0  0  0
  -12.6744    4.5769    0.0000 N   0  0  0  0  0  0  0  0  0  0  0  0
  -13.9621    3.8075    0.0000 C   0  0  0  0  0  0  0  0  0  0  0  0
  -15.2722    4.5380    0.0000 C   0  0  0  0  0  0  0  0  0  0  0  0
  -16.5599    3.7687    0.0000 C   0  0  0  0  0  0  0  0  0  0  0  0
  -17.8700    4.4991    0.0000 C   0  0  0  0  0  0  0  0  0  0  0  0
  -19.1576    3.7298    0.0000 N   0  0  0  0  0  0  0  0  0  0  0  0
  -20.4678    4.4603    0.0000 C   0  0  0  0  0  0  0  0  0  0  0  0
  -20.4902    5.9601    0.0000 N   0  0  0  0  0  0  0  0  0  0  0  0
  -21.7554    3.6909    0.0000 N   0  0  0  0  0  0  0  0  0  0  0  0
  -13.9396    2.3077    0.0000 C   0  0  0  0  0  0  0  0  0  0  0  0
  -12.6295    1.5772    0.0000 O   0  0  0  0  0  0  0  0  0  0  0  0
  -15.2273    1.5383    0.0000 N   0  0  0  0  0  0  0  0  0  0  0  0
  -15.2049    0.0385    0.0000 C   0  0  0  0  0  0  0  0  0  0  0  0
  -16.4925   -0.7308    0.0000 C   0  0  0  0  0  0  0  0  0  0  0  0
  -16.4701   -2.2307    0.0000 C   0  0  0  0  0  0  0  0  0  0  0  0
  -17.7578   -3.0000    0.0000 C   0  0  0  0  0  0  0  0  0  0  0  0
  -17.7353   -4.4999    0.0000 N   0  0  0  0  0  0  0  0  0  0  0  0
  -19.0230   -5.2692    0.0000 C   0  0  0  0  0  0  0  0  0  0  0  0
  -20.3331   -4.5387    0.0000 N   0  0  0  0  0  0  0  0  0  0  0  0
  -19.0006   -6.7690    0.0000 N   0  0  0  0  0  0  0  0  0  0  0  0
  -13.8948   -0.6920    0.0000 C   0  0  0  0  0  0  0  0  0  0  0  0
  -13.8723   -2.1918    0.0000 N   0  0  0  0  0  0  0  0  0  0  0  0
  -12.6071    0.0774    0.0000 O   0  0  0  0  0  0  0  0  0  0  0  0
  -10.7274    5.9672    0.0000 N   0  0  0  0  0  0  0  0  0  0  0  0
  -11.1265    7.4131    0.0000 C   0  0  0  0  0  0  0  0  0  0  0  0
  -12.6024    7.1453    0.0000 O   0  0  0  0  0  0  0  0  0  0  0  0
  -11.2610    8.9071    0.0000 C   0  0  0  0  0  0  0  0  0  0  0  0
  -12.7610    8.9071    0.0000 C   0  0  0  0  0  0  0  0  0  0  0  0
  -13.5110   10.2061    0.0000 C   0  0  0  0  0  0  0  0  0  0  0  0
  -13.5110    7.6081    0.0000 C   0  0  0  0  0  0  0  0  0  0  0  0
  -11.1265   10.4011    0.0000 N   0  0  0  0  0  0  0  0  0  0  0  0
  -10.7274   11.8470    0.0000 C   0  0  0  0  0  0  0  0  0  0  0  0
  -12.1318   12.3741    0.0000 O   0  0  0  0  0  0  0  0  0  0  0  0
  -10.0766   13.1984    0.0000 C   0  0  0  0  0  0  0  0  0  0  0  0
  -11.5032   13.6620    0.0000 C   0  0  0  0  0  0  0  0  0  0  0  0
  -11.5032   15.1620    0.0000 C   0  0  0  0  0  0  0  0  0  0  0  0
  -10.0766   15.6255    0.0000 C   0  0  0  0  0  0  0  0  0  0  0  0
   -9.1949   14.4120    0.0000 N   0  0  0  0  0  0  0  0  0  0  0  0
   -8.1107   15.4486    0.0000 C   0  0  0  0  0  0  0  0  0  0  0  0
   -9.0460   16.6213    0.0000 O   0  0  0  0  0  0  0  0  0  0  0  0
   -6.8589   16.2749    0.0000 C   0  0  0  0  0  0  0  0  0  0  0  0
   -7.5697   17.5958    0.0000 C   0  0  0  0  0  0  0  0  0  0  0  0
   -6.7812   18.8718    0.0000 C   0  0  0  0  0  0  0  0  0  0  0  0
   -5.2818   18.8270    0.0000 O   0  0  0  0  0  0  0  0  0  0  0  0
   -7.4920   20.1927    0.0000 O   0  0  0  0  0  0  0  0  0  0  0  0
   -5.4796   16.8645    0.0000 N   0  0  0  0  0  0  0  0  0  0  0  0
   -4.0172   17.1982    0.0000 C   0  0  0  0  0  0  0  0  0  0  0  0
   -4.2186   18.6847    0.0000 O   0  0  0  0  0  0  0  0  0  0  0  0
   -2.5187   17.2655    0.0000 C   0  0  0  0  0  0  0  0  0  0  0  0
   -2.4514   18.7640    0.0000 C   0  0  0  0  0  0  0  0  0  0  0  0
   -1.1200   19.4550    0.0000 C   0  0  0  0  0  0  0  0  0  0  0  0
    0.1440   18.6475    0.0000 C   0  0  0  0  0  0  0  0  0  0  0  0
    1.4754   19.3384    0.0000 C   0  0  0  0  0  0  0  0  0  0  0  0
    2.7395   18.5309    0.0000 F   0  0  0  0  0  0  0  0  0  0  0  0
    1.5427   20.8369    0.0000 C   0  0  0  0  0  0  0  0  0  0  0  0
    2.8741   21.5279    0.0000 F   0  0  0  0  0  0  0  0  0  0  0  0
    0.2786   21.6444    0.0000 C   0  0  0  0  0  0  0  0  0  0  0  0
    0.3459   23.1429    0.0000 F   0  0  0  0  0  0  0  0  0  0  0  0
   -1.0527   20.9535    0.0000 C   0  0  0  0  0  0  0  0  0  0  0  0
   -1.0323   17.0642    0.0000 N   0  0  0  0  0  0  0  0  0  0  0  0
    0.3943   16.6007    0.0000 C   0  0  0  0  0  0  0  0  0  0  0  0
    0.9838   17.9799    0.0000 O   0  0  0  0  0  0  0  0  0  0  0  0
    1.7152   15.8899    0.0000 C   0  0  0  0  0  0  0  0  0  0  0  0
    2.5415   17.1417    0.0000 C   0  0  0  0  0  0  0  0  0  0  0  0
    4.0389   17.0520    0.0000 O   0  0  0  0  0  0  0  0  0  0  0  0
    2.8879   14.9546    0.0000 N   0  0  0  0  0  0  0  0  0  0  0  0
    3.8748   13.8250    0.0000 C   0  0  0  0  0  0  0  0  0  0  0  0
    5.0884   14.7067    0.0000 O   0  0  0  0  0  0  0  0  0  0  0  0
  1  2  1  0
  2  3  1  0
  3  4  1  6
  3  5  1  0
  5  6  1  6
  6  7  1  0
  7  8  2  0
  7  9  1  0
  9 10  1  6
 10 11  1  0
 11 12  2  0
 12 13  1  0
 13 14  2  0
 14 15  1  0
 14 16  1  0
 16 17  2  0
  9 18  1  0
 18 19  1  0
 19 20  2  0
 19 21  1  0
 21 22  1  6
 22 23  1  0
 23 24  1  0
 23 25  1  0
 21 26  1  0
 26 27  1  0
 27 28  2  0
 27 29  1  0
 29 30  1  6
 30 31  1  0
 31 32  1  0
 32 33  1  0
 33 34  1  0
 34 35  2  0
 34 36  1  0
 36 37  1  1
 37 38  1  0
 38 39  2  0
 38 40  1  0
 40 41  1  1
 41 42  1  0
 42 43  1  0
 43 44  1  0
 44 45  1  0
 45 46  2  0
 45 47  1  0
 40 48  1  0
 48 49  1  0
 49 50  2  0
 49 51  1  0
 51 52  1  1
 52 53  1  0
 53 54  1  0
 54 55  1  0
 55 56  1  0
 56 57  2  0
 56 58  1  0
 51 59  1  0
 59 60  1  0
 60 61  1  0
 60 62  2  0
 36 63  1  0
 63 64  1  0
 64 65  1  0
 65 66  1  0
 66 67  1  0
 67 68  1  1
 68 69  2  0
 68 70  1  0
 70 71  1  0
 71 72  1  6
 72 73  1  0
 73 74  1  0
 74 75  1  0
 75 76  1  0
 76 77  2  0
 76 78  1  0
 71 79  1  0
 79 80  2  0
 79 81  1  0
 81 82  1  0
 82 83  1  6
 83 84  1  0
 84 85  1  0
 85 86  1  0
 86 87  1  0
 87 88  2  0
 87 89  1  0
 82 90  1  0
 90 91  1  0
 90 92  2  0
 67 93  1  0
 93 94  1  0
 94 95  2  0
 94 96  1  0
 96 97  1  6
 97 98  1  0
 97 99  1  0
 96100  1  0
100101  1  0
101102  2  0
101103  1  0
103104  1  6
104105  1  0
105106  1  0
106107  1  0
107108  1  0
108109  2  0
108110  1  0
110111  1  6
111112  1  0
112113  2  0
112114  1  0
110115  1  0
115116  1  0
116117  2  0
116118  1  0
118119  1  6
119120  1  0
120121  2  0
121122  1  0
122123  1  0
122124  2  0
124125  1  0
124126  1  0
126127  1  0
126128  2  0
118129  1  0
129130  1  0
130131  2  0
130132  1  0
132133  1  6
133134  1  0
132135  1  0
135136  1  0
136137  2  0
136  5  1  0
 17 11  1  0
 33 29  1  0
107103  1  0
128120  1  0
M  END
>  <molecule_chembl_id>  (223) 
CHEMBL5192424

>  <canonical_smiles>  (223) 
CC[C@H](C)[C@@H]1NC(=O)[C@H](Cc2ccc(O)cc2)NC(=O)[C@H](CC(C)C)NC(=O)[C@@H]2CCCN2C(=O)[C@@H](NC(=O)[C@H](CCCNC(=N)N)NC(=O)[C@H](CCCNC(=N)N)NC(C)=O)CSSC[C@@H](C(=O)N[C@@H](CCCNC(=N)N)C(=O)N[C@@H](CCCNC(=N)N)C(N)=O)NC(=O)[C@H](C(C)C)NC(=O)[C@@H]2CCCN2C(=O)[C@H](CC(=O)O)NC(=O)[C@H](Cc2cc(F)c(F)c(F)c2)NC(=O)[C@H](CO)NC1=O

>  <pchembl_value_mean>  (223) 
6.71

>  <inchi>  (223) 
InChI=1S/C84H131F3N28O20S2/c1-8-42(6)65-78(133)109-57(37-116)73(128)106-55(35-45-32-47(85)63(87)48(86)33-45)71(126)108-56(36-62(119)120)79(134)114-29-14-20-61(114)76(131)112-64(41(4)5)77(132)110-58(74(129)104-51(17-11-27-99-83(93)94)68(123)102-49(66(88)121)15-9-25-97-81(89)90)38-136-137-39-59(111-69(124)52(18-12-28-100-84(95)96)103-67(122)50(101-43(7)117)16-10-26-98-82(91)92)80(135)115-30-13-19-60(115)75(130)107-53(31-40(2)3)70(125)105-54(72(127)113-65)34-44-21-23-46(118)24-22-44/h21-24,32-33,40-42,49-61,64-65,116,118H,8-20,25-31,34-39H2,1-7H3,(H2,88,121)(H,101,117)(H,102,123)(H,103,122)(H,104,129)(H,105,125)(H,106,128)(H,107,130)(H,108,126)(H,109,133)(H,110,132)(H,111,124)(H,112,131)(H,113,127)(H,119,120)(H4,89,90,97)(H4,91,92,98)(H4,93,94,99)(H4,95,96,100)/t42-,49-,50-,51-,52-,53-,54-,55-,56-,57-,58-,59-,60-,61-,64-,65-/m0/s1

$$$$

     RDKit          2D

 40 47  0  0  0  0  0  0  0  0999 V2000
    3.0000    0.0000    0.0000 F   0  0  0  0  0  0  0  0  0  0  0  0
    1.5000    0.0000    0.0000 C   0  0  0  0  0  0  0  0  0  0  0  0
    0.7500   -1.2990    0.0000 C   0  0  0  0  0  0  0  0  0  0  0  0
    1.5000   -2.5981    0.0000 C   0  0  0  0  0  0  0  0  0  0  0  0
    3.0000   -2.5981    0.0000 C   0  0  0  0  0  0  0  0  0  0  0  0
    3.7500   -3.8971    0.0000 C   0  0  0  0  0  0  0  0  0  0  0  0
    3.0000   -5.1962    0.0000 C   0  0  0  0  0  0  0  0  0  0  0  0
    1.5000   -5.1962    0.0000 C   0  0  0  0  0  0  0  0  0  0  0  0
    0.7500   -6.4952    0.0000 C   0  0  0  0  0  0  0  0  0  0  0  0
   -0.7500   -6.4952    0.0000 C   0  0  0  0  0  0  0  0  0  0  0  0
   -1.5000   -5.1962    0.0000 C   0  0  0  0  0  0  0  0  0  0  0  0
   -0.7500   -3.8971    0.0000 C   0  0  0  0  0  0  0  0  0  0  0  0
   -1.5000   -2.5981    0.0000 Cl  0  0  0  0  0  0  0  0  0  0  0  0
    0.7500   -3.8971    0.0000 C   0  0  0  0  0  0  0  0  0  0  0  0
   -0.7500   -1.2990    0.0000 N   0  0  0  0  0  0  0  0  0  0  0  0
   -1.5000    0.0000    0.0000 C   0  0  0  0  0  0  0  0  0  0  0  0
   -0.7500    1.2990    0.0000 C   0  0  0  0  0  0  0  0  0  0  0  0
   -1.5000    2.5981    0.0000 C   0  0  0  0  0  0  0  0  0  0  0  0
   -3.0000    2.5981    0.0000 N   0  0  0  0  0  0  0  0  0  0  0  0
   -3.7500    3.8971    0.0000 C   0  0  0  0  0  0  0  0  0  0  0  0
   -5.2500    3.8971    0.0000 C   0  0  0  0  0  0  0  0  0  0  0  0
   -6.6766    3.4336    0.0000 C   0  0  0  0  0  0  0  0  0  0  0  0
   -6.6766    1.9336    0.0000 C   0  0  0  0  0  0  0  0  0  0  0  0
   -5.2500    1.4701    0.0000 C   0  0  0  0  0  0  0  0  0  0  0  0
   -3.7500    1.2990    0.0000 C   0  0  0  0  0  0  0  0  0  0  0  0
   -4.3683    2.6836    0.0000 N   0  0  0  0  0  0  0  0  0  0  0  0
   -0.7500    3.8971    0.0000 N   0  0  0  0  0  0  0  0  0  0  0  0
    0.7500    3.8971    0.0000 C   0  0  0  0  0  0  0  0  0  0  0  0
    1.5000    5.1962    0.0000 O   0  0  0  0  0  0  0  0  0  0  0  0
    3.0000    5.1962    0.0000 C   0  0  0  0  0  0  0  0  0  0  0  0
    3.7500    6.4952    0.0000 C   0  0  0  0  0  0  0  0  0  0  0  0
    2.2828    6.8071    0.0000 C   0  0  0  0  0  0  0  0  0  0  0  0
    2.1260    8.2988    0.0000 C   0  0  0  0  0  0  0  0  0  0  0  0
    3.4963    8.9089    0.0000 C   0  0  0  0  0  0  0  0  0  0  0  0
    4.5000    7.7942    0.0000 N   0  0  0  0  0  0  0  0  0  0  0  0
    5.9672    7.4824    0.0000 C   0  0  0  0  0  0  0  0  0  0  0  0
    6.1240    5.9906    0.0000 C   0  0  0  0  0  0  0  0  0  0  0  0
    4.7537    5.3805    0.0000 C   0  0  0  0  0  0  0  0  0  0  0  0
    1.5000    2.5981    0.0000 N   0  0  0  0  0  0  0  0  0  0  0  0
    0.7500    1.2990    0.0000 C   0  0  0  0  0  0  0  0  0  0  0  0
  1  2  1  0
  2  3  2  0
  3  4  1  0
  4  5  2  0
  5  6  1  0
  6  7  2  0
  7  8  1  0
  8  9  2  0
  9 10  1  0
 10 11  2  0
 11 12  1  0
 12 13  1  0
 12 14  2  0
  3 15  1  0
 15 16  2  0
 16 17  1  0
 17 18  2  0
 18 19  1  0
 19 20  1  0
 21 20  1  6
 21 22  1  0
 22 23  1  0
 24 23  1  6
 24 25  1  0
 24 26  1  0
 18 27  1  0
 27 28  2  0
 28 29  1  0
 29 30  1  0
 30 31  1  0
 31 32  1  0
 32 33  1  0
 33 34  1  0
 34 35  1  0
 35 36  1  0
 36 37  1  0
 37 38  1  0
 28 39  1  0
 39 40  2  0
 40  2  1  0
 14  4  1  0
 40 17  1  0
 14  8  1  0
 25 19  1  0
 35 31  1  0
 26 21  1  0
 38 31  1  0
M  END
>  <molecule_chembl_id>  (224) 
CHEMBL5074273

>  <canonical_smiles>  (224) 
Fc1c(-c2cccc3cccc(Cl)c23)ncc2c(N3C[C@H]4CC[C@@H](C3)N4)nc(OCC34CCCN3CCC4)nc12

>  <pchembl_value_mean>  (224) 
6.72

>  <inchi>  (224) 
InChI=1S/C31H32ClFN6O/c32-24-8-2-6-19-5-1-7-22(25(19)24)27-26(33)28-23(15-34-27)29(38-16-20-9-10-21(17-38)35-20)37-30(36-28)40-18-31-11-3-13-39(31)14-4-12-31/h1-2,5-8,15,20-21,35H,3-4,9-14,16-18H2/t20-,21+

$$$$

     RDKit          2D

 38 42  0  0  0  0  0  0  0  0999 V2000
  -10.2078   -0.4760    0.0000 C   0  0  0  0  0  0  0  0  0  0  0  0
   -8.9943   -1.3576    0.0000 C   0  0  0  0  0  0  0  0  0  0  0  0
   -9.1510   -2.8494    0.0000 C   0  0  0  0  0  0  0  0  0  0  0  0
  -10.5214   -3.4595    0.0000 O   0  0  0  0  0  0  0  0  0  0  0  0
   -7.9375   -3.7311    0.0000 N   0  0  0  0  0  0  0  0  0  0  0  0
   -6.4560   -3.4965    0.0000 C   0  0  0  0  0  0  0  0  0  0  0  0
   -6.2213   -4.9780    0.0000 C   0  0  0  0  0  0  0  0  0  0  0  0
   -5.0078   -5.8597    0.0000 N   0  0  0  0  0  0  0  0  0  0  0  0
   -3.6375   -5.2496    0.0000 C   0  0  0  0  0  0  0  0  0  0  0  0
   -3.4807   -3.7578    0.0000 O   0  0  0  0  0  0  0  0  0  0  0  0
   -2.4240   -6.1312    0.0000 C   0  0  0  0  0  0  0  0  0  0  0  0
   -1.0537   -5.5211    0.0000 N   0  0  0  0  0  0  0  0  0  0  0  0
   -0.7418   -4.0539    0.0000 C   0  0  0  0  0  0  0  0  0  0  0  0
   -1.7455   -2.9392    0.0000 C   0  0  0  0  0  0  0  0  0  0  0  0
    0.7500   -3.8971    0.0000 C   0  0  0  0  0  0  0  0  0  0  0  0
    1.5000   -2.5981    0.0000 C   0  0  0  0  0  0  0  0  0  0  0  0
    3.0000   -2.5981    0.0000 O   0  0  0  0  0  0  0  0  0  0  0  0
    0.7500   -1.2990    0.0000 N   0  0  0  0  0  0  0  0  0  0  0  0
    1.5000    0.0000    0.0000 C   0  0  0  0  0  0  0  0  0  0  0  0
    0.7500    1.2990    0.0000 C   0  0  0  0  0  0  0  0  0  0  0  0
   -0.7500    1.2990    0.0000 C   0  0  0  0  0  0  0  0  0  0  0  0
   -1.5000    0.0000    0.0000 C   0  0  0  0  0  0  0  0  0  0  0  0
   -3.0000    0.0000    0.0000 C   0  0  0  0  0  0  0  0  0  0  0  0
   -3.7500    1.2990    0.0000 C   0  0  0  0  0  0  0  0  0  0  0  0
   -3.0000    2.5981    0.0000 C   0  0  0  0  0  0  0  0  0  0  0  0
   -1.5000    2.5981    0.0000 C   0  0  0  0  0  0  0  0  0  0  0  0
   -0.7500    3.8971    0.0000 O   0  0  0  0  0  0  0  0  0  0  0  0
   -1.5000    5.1962    0.0000 C   0  0  0  0  0  0  0  0  0  0  0  0
   -0.7500   -1.2990    0.0000 C   0  0  0  0  0  0  0  0  0  0  0  0
    1.3601   -5.2674    0.0000 C   0  0  0  0  0  0  0  0  0  0  0  0
    2.7867   -5.7310    0.0000 C   0  0  0  0  0  0  0  0  0  0  0  0
    3.0986   -7.1982    0.0000 C   0  0  0  0  0  0  0  0  0  0  0  0
    4.5251   -7.6617    0.0000 Br  0  0  0  0  0  0  0  0  0  0  0  0
    1.9838   -8.2019    0.0000 C   0  0  0  0  0  0  0  0  0  0  0  0
    0.5573   -7.7383    0.0000 C   0  0  0  0  0  0  0  0  0  0  0  0
   -0.5575   -8.7420    0.0000 C   0  0  0  0  0  0  0  0  0  0  0  0
    0.2454   -6.2711    0.0000 C   0  0  0  0  0  0  0  0  0  0  0  0
   -7.7029   -5.2126    0.0000 C   0  0  0  0  0  0  0  0  0  0  0  0
  1  2  2  0
  2  3  1  0
  3  4  2  0
  3  5  1  0
  5  6  1  0
  6  7  1  0
  7  8  1  0
  8  9  1  0
  9 10  2  0
  9 11  1  0
 11 12  1  0
 12 13  1  0
 13 14  1  0
 13 15  2  0
 15 16  1  0
 16 17  2  0
 16 18  1  0
 18 19  1  0
 19 20  1  0
 20 21  1  0
 21 22  2  0
 22 23  1  0
 23 24  2  0
 24 25  1  0
 25 26  2  0
 26 27  1  0
 27 28  1  0
 22 29  1  0
 15 30  1  0
 30 31  2  0
 31 32  1  0
 32 33  1  0
 32 34  2  0
 34 35  1  0
 35 36  1  0
 35 37  2  0
  7 38  1  0
 38  5  1  0
 37 12  1  0
 29 18  1  0
 37 30  1  0
 26 21  1  0
M  END
>  <molecule_chembl_id>  (225) 
CHEMBL4541628

>  <canonical_smiles>  (225) 
C=CC(=O)N1CC(NC(=O)Cn2c(C)c(C(=O)N3CCc4c(cccc4OC)C3)c3cc(Br)cc(C)c32)C1

>  <pchembl_value_mean>  (225) 
6.74

>  <inchi>  (225) 
InChI=1S/C29H31BrN4O4/c1-5-26(36)33-14-21(15-33)31-25(35)16-34-18(3)27(23-12-20(30)11-17(2)28(23)34)29(37)32-10-9-22-19(13-32)7-6-8-24(22)38-4/h5-8,11-12,21H,1,9-10,13-16H2,2-4H3,(H,31,35)

$$$$

     RDKit          2D

 53 60  0  0  0  0  0  0  0  0999 V2000
   -3.3818  -11.6074    0.0000 C   0  0  0  0  0  0  0  0  0  0  0  0
   -2.1424  -10.7624    0.0000 C   0  0  0  0  0  0  0  0  0  0  0  0
   -0.7910  -11.4132    0.0000 C   0  0  0  0  0  0  0  0  0  0  0  0
    0.4484  -10.5682    0.0000 C   0  0  0  0  0  0  0  0  0  0  0  0
    1.7998  -11.2191    0.0000 N   0  0  0  0  0  0  0  0  0  0  0  0
    0.3363   -9.0724    0.0000 N   0  0  0  0  0  0  0  0  0  0  0  0
   -1.0152   -8.4216    0.0000 C   0  0  0  0  0  0  0  0  0  0  0  0
   -1.1273   -6.9258    0.0000 C   0  0  0  0  0  0  0  0  0  0  0  0
   -2.4787   -6.2750    0.0000 C   0  0  0  0  0  0  0  0  0  0  0  0
   -2.5908   -4.7792    0.0000 C   0  0  0  0  0  0  0  0  0  0  0  0
   -4.0307   -4.3423    0.0000 N   0  0  0  0  0  0  0  0  0  0  0  0
   -4.2543   -2.8590    0.0000 C   0  0  0  0  0  0  0  0  0  0  0  0
   -5.6506   -2.3110    0.0000 O   0  0  0  0  0  0  0  0  0  0  0  0
   -5.8742   -0.8278    0.0000 C   0  0  0  0  0  0  0  0  0  0  0  0
   -7.2705   -0.2797    0.0000 C   0  0  0  0  0  0  0  0  0  0  0  0
   -8.5346   -1.0873    0.0000 C   0  0  0  0  0  0  0  0  0  0  0  0
   -9.6932   -0.1346    0.0000 C   0  0  0  0  0  0  0  0  0  0  0  0
   -9.1452    1.2617    0.0000 C   0  0  0  0  0  0  0  0  0  0  0  0
   -7.6479    1.1720    0.0000 N   0  0  0  0  0  0  0  0  0  0  0  0
   -6.6952    2.3306    0.0000 C   0  0  0  0  0  0  0  0  0  0  0  0
   -3.0815   -1.9238    0.0000 N   0  0  0  0  0  0  0  0  0  0  0  0
   -1.6852   -2.4718    0.0000 C   0  0  0  0  0  0  0  0  0  0  0  0
   -1.3515   -3.9342    0.0000 C   0  0  0  0  0  0  0  0  0  0  0  0
   -0.0000   -4.5850    0.0000 C   0  0  0  0  0  0  0  0  0  0  0  0
    0.1121   -6.0808    0.0000 C   0  0  0  0  0  0  0  0  0  0  0  0
    1.4635   -6.7316    0.0000 Cl  0  0  0  0  0  0  0  0  0  0  0  0
    1.3515   -3.9342    0.0000 O   0  0  0  0  0  0  0  0  0  0  0  0
    1.6852   -2.4718    0.0000 C   0  0  0  0  0  0  0  0  0  0  0  0
    0.7500   -1.2990    0.0000 C   0  0  0  0  0  0  0  0  0  0  0  0
    1.5000    0.0000    0.0000 C   0  0  0  0  0  0  0  0  0  0  0  0
    0.7500    1.2990    0.0000 N   0  0  0  0  0  0  0  0  0  0  0  0
    1.5000    2.5981    0.0000 C   0  0  0  0  0  0  0  0  0  0  0  0
    0.7500    3.8971    0.0000 O   0  0  0  0  0  0  0  0  0  0  0  0
    3.0000    2.5981    0.0000 C   0  0  0  0  0  0  0  0  0  0  0  0
    3.7500    3.8971    0.0000 C   0  0  0  0  0  0  0  0  0  0  0  0
    5.2500    3.8971    0.0000 C   0  0  0  0  0  0  0  0  0  0  0  0
    6.0000    2.5981    0.0000 N   0  0  0  0  0  0  0  0  0  0  0  0
    7.5000    2.5981    0.0000 C   0  0  0  0  0  0  0  0  0  0  0  0
    8.2500    3.8971    0.0000 C   0  0  0  0  0  0  0  0  0  0  0  0
    7.5000    5.1962    0.0000 C   0  0  0  0  0  0  0  0  0  0  0  0
    6.0000    5.1962    0.0000 C   0  0  0  0  0  0  0  0  0  0  0  0
    5.2500    6.4952    0.0000 C   0  0  0  0  0  0  0  0  0  0  0  0
    6.0000    7.7942    0.0000 N   0  0  0  0  0  0  0  0  0  0  0  0
    7.5000    7.7942    0.0000 C   0  0  0  0  0  0  0  0  0  0  0  0
    8.2500    6.4952    0.0000 C   0  0  0  0  0  0  0  0  0  0  0  0
   -0.7500    1.2990    0.0000 C   0  0  0  0  0  0  0  0  0  0  0  0
   -1.5000    0.0000    0.0000 C   0  0  0  0  0  0  0  0  0  0  0  0
   -0.7500   -1.2990    0.0000 N   0  0  0  0  0  0  0  0  0  0  0  0
   -2.2545   -9.2666    0.0000 C   0  0  0  0  0  0  0  0  0  0  0  0
   -3.6060   -8.6157    0.0000 C   0  0  0  0  0  0  0  0  0  0  0  0
   -4.9574   -7.9649    0.0000 F   0  0  0  0  0  0  0  0  0  0  0  0
   -4.2568   -9.9672    0.0000 F   0  0  0  0  0  0  0  0  0  0  0  0
   -2.9552   -7.2643    0.0000 F   0  0  0  0  0  0  0  0  0  0  0  0
  1  2  1  0
  2  3  2  0
  3  4  1  0
  4  5  1  0
  4  6  2  0
  6  7  1  0
  7  8  1  0
  8  9  2  0
  9 10  1  0
 10 11  2  0
 11 12  1  0
 12 13  1  0
 13 14  1  0
 15 14  1  6
 15 16  1  0
 16 17  1  0
 17 18  1  0
 18 19  1  0
 19 20  1  0
 12 21  2  0
 21 22  1  0
 22 23  2  0
 23 24  1  0
 24 25  2  0
 25 26  1  0
 24 27  1  0
 27 28  1  0
 29 28  1  1
 29 30  1  0
 30 31  1  0
 31 32  1  0
 32 33  2  0
 32 34  1  0
 34 35  2  0
 35 36  1  0
 36 37  2  0
 37 38  1  0
 38 39  2  0
 39 40  1  0
 40 41  2  0
 41 42  1  0
 42 43  1  0
 43 44  1  0
 44 45  1  0
 31 46  1  0
 46 47  1  0
 47 48  1  0
  7 49  2  0
 49 50  1  0
 50 51  1  0
 50 52  1  0
 50 53  1  0
 49  2  1  0
 25  8  1  0
 48 29  1  0
 23 10  1  0
 41 36  1  0
 19 15  1  0
 48 22  1  0
 45 40  1  0
M  END
>  <molecule_chembl_id>  (226) 
CHEMBL5429450

>  <canonical_smiles>  (226) 
Cc1cc(N)nc(-c2cc3nc(OC[C@@H]4CCCN4C)nc4c3c(c2Cl)OC[C@@H]2CN(C(=O)/C=C/c3nccc5c3CNCC5)CCN42)c1C(F)(F)F

>  <pchembl_value_mean>  (226) 
6.75

>  <inchi>  (226) 
InChI=1S/C37H39ClF3N9O3/c1-20-14-28(42)46-33(31(20)37(39,40)41)24-15-27-30-34(32(24)38)52-19-23-17-49(29(51)6-5-26-25-16-43-9-7-21(25)8-10-44-26)12-13-50(23)35(30)47-36(45-27)53-18-22-4-3-11-48(22)2/h5-6,8,10,14-15,22-23,43H,3-4,7,9,11-13,16-19H2,1-2H3,(H2,42,46)/b6-5+/t22-,23-/m0/s1

$$$$

     RDKit          2D

 39 44  0  0  0  0  0  0  0  0999 V2000
    3.7500   -9.0933    0.0000 C   0  0  0  0  0  0  0  0  0  0  0  0
    3.0000   -7.7942    0.0000 C   0  0  0  0  0  0  0  0  0  0  0  0
    3.7500   -6.4952    0.0000 C   0  0  0  0  0  0  0  0  0  0  0  0
    5.2500   -6.4952    0.0000 O   0  0  0  0  0  0  0  0  0  0  0  0
    3.0000   -5.1962    0.0000 N   0  0  0  0  0  0  0  0  0  0  0  0
    1.5000   -5.1962    0.0000 C   0  0  0  0  0  0  0  0  0  0  0  0
    0.7500   -3.8971    0.0000 C   0  0  0  0  0  0  0  0  0  0  0  0
    1.5000   -2.5981    0.0000 N   0  0  0  0  0  0  0  0  0  0  0  0
    0.7500   -1.2990    0.0000 C   0  0  0  0  0  0  0  0  0  0  0  0
    1.5000    0.0000    0.0000 N   0  0  0  0  0  0  0  0  0  0  0  0
    0.7500    1.2990    0.0000 C   0  0  0  0  0  0  0  0  0  0  0  0
    1.5000    2.5981    0.0000 O   0  0  0  0  0  0  0  0  0  0  0  0
    3.0000    2.5981    0.0000 C   0  0  0  0  0  0  0  0  0  0  0  0
    3.7500    3.8971    0.0000 C   0  0  0  0  0  0  0  0  0  0  0  0
    3.1399    5.2674    0.0000 C   0  0  0  0  0  0  0  0  0  0  0  0
    4.2546    6.2711    0.0000 C   0  0  0  0  0  0  0  0  0  0  0  0
    5.5537    5.5211    0.0000 C   0  0  0  0  0  0  0  0  0  0  0  0
    5.2418    4.0539    0.0000 N   0  0  0  0  0  0  0  0  0  0  0  0
    6.2455    2.9392    0.0000 C   0  0  0  0  0  0  0  0  0  0  0  0
   -0.7500    1.2990    0.0000 N   0  0  0  0  0  0  0  0  0  0  0  0
   -1.5000    0.0000    0.0000 C   0  0  0  0  0  0  0  0  0  0  0  0
   -0.7500   -1.2990    0.0000 C   0  0  0  0  0  0  0  0  0  0  0  0
   -1.5000   -2.5981    0.0000 C   0  0  0  0  0  0  0  0  0  0  0  0
   -3.0000   -2.5981    0.0000 C   0  0  0  0  0  0  0  0  0  0  0  0
   -3.7500   -3.8971    0.0000 C   0  0  0  0  0  0  0  0  0  0  0  0
   -3.7500   -1.2990    0.0000 C   0  0  0  0  0  0  0  0  0  0  0  0
   -5.2500   -1.2990    0.0000 C   0  0  0  0  0  0  0  0  0  0  0  0
   -6.0000   -2.5981    0.0000 C   0  0  0  0  0  0  0  0  0  0  0  0
   -5.2500   -3.8971    0.0000 C   0  0  0  0  0  0  0  0  0  0  0  0
   -7.5000   -2.5981    0.0000 C   0  0  0  0  0  0  0  0  0  0  0  0
   -8.2500   -1.2990    0.0000 C   0  0  0  0  0  0  0  0  0  0  0  0
   -7.5000   -0.0000    0.0000 C   0  0  0  0  0  0  0  0  0  0  0  0
   -7.9635    1.4266    0.0000 N   0  0  0  0  0  0  0  0  0  0  0  0
   -6.7500    2.3083    0.0000 N   0  0  0  0  0  0  0  0  0  0  0  0
   -5.5365    1.4266    0.0000 C   0  0  0  0  0  0  0  0  0  0  0  0
   -6.0000    0.0000    0.0000 C   0  0  0  0  0  0  0  0  0  0  0  0
   -3.0000    0.0000    0.0000 C   0  0  0  0  0  0  0  0  0  0  0  0
    3.0000   -2.5981    0.0000 C   0  0  0  0  0  0  0  0  0  0  0  0
    3.7500   -3.8971    0.0000 C   0  0  0  0  0  0  0  0  0  0  0  0
  1  2  2  0
  2  3  1  0
  3  4  2  0
  3  5  1  0
  5  6  1  0
  6  7  1  0
  7  8  1  0
  8  9  1  0
  9 10  2  0
 10 11  1  0
 11 12  1  0
 12 13  1  0
 14 13  1  1
 14 15  1  0
 15 16  1  0
 16 17  1  0
 17 18  1  0
 18 19  1  0
 11 20  2  0
 20 21  1  0
 21 22  2  0
 22 23  1  0
 23 24  1  0
 24 25  1  1
 24 26  1  0
 26 27  1  6
 27 28  2  0
 28 29  1  0
 28 30  1  0
 30 31  2  0
 31 32  1  0
 32 33  1  0
 33 34  1  0
 34 35  2  0
 35 36  1  0
 26 37  1  0
  8 38  1  0
 38 39  1  0
 39  5  1  0
 22  9  1  0
 36 27  1  0
 18 14  1  0
 37 21  1  0
 36 32  2  0
M  END
>  <molecule_chembl_id>  (227) 
CHEMBL4473733

>  <canonical_smiles>  (227) 
C=CC(=O)N1CCN(c2nc(OC[C@H]3CCCN3C)nc3c2C[C@@H](C)[C@H](c2c(C)ccc4[nH]ncc24)C3)CC1

>  <pchembl_value_mean>  (227) 
6.76

>  <inchi>  (227) 
InChI=1S/C30H39N7O2/c1-5-27(38)36-11-13-37(14-12-36)29-23-15-20(3)22(28-19(2)8-9-25-24(28)17-31-34-25)16-26(23)32-30(33-29)39-18-21-7-6-10-35(21)4/h5,8-9,17,20-22H,1,6-7,10-16,18H2,2-4H3,(H,31,34)/t20-,21-,22-/m1/s1

$$$$

     RDKit          2D

 39 43  0  0  0  0  0  0  0  0999 V2000
   -9.7500   -1.2990    0.0000 C   0  0  0  0  0  0  0  0  0  0  0  0
   -8.2500   -1.2990    0.0000 C   0  0  0  0  0  0  0  0  0  0  0  0
   -7.5000   -2.5981    0.0000 C   0  0  0  0  0  0  0  0  0  0  0  0
   -8.2500   -3.8971    0.0000 O   0  0  0  0  0  0  0  0  0  0  0  0
   -6.0000   -2.5981    0.0000 N   0  0  0  0  0  0  0  0  0  0  0  0
   -5.2500   -1.2990    0.0000 C   0  0  0  0  0  0  0  0  0  0  0  0
   -3.7500   -1.2990    0.0000 C   0  0  0  0  0  0  0  0  0  0  0  0
   -3.0000   -2.5981    0.0000 N   0  0  0  0  0  0  0  0  0  0  0  0
   -1.5000   -2.5981    0.0000 C   0  0  0  0  0  0  0  0  0  0  0  0
   -0.7500   -3.8971    0.0000 N   0  0  0  0  0  0  0  0  0  0  0  0
    0.7500   -3.8971    0.0000 C   0  0  0  0  0  0  0  0  0  0  0  0
    1.1772   -4.9037    0.0000 O   0  0  0  0  0  0  0  0  0  0  0  0
    1.5000   -2.5981    0.0000 N   0  0  0  0  0  0  0  0  0  0  0  0
    3.0000   -2.5981    0.0000 C   0  0  0  0  0  0  0  0  0  0  0  0
    3.7500   -1.2990    0.0000 C   0  0  0  0  0  0  0  0  0  0  0  0
    5.2500   -1.2990    0.0000 C   0  0  0  0  0  0  0  0  0  0  0  0
    6.0000   -2.5981    0.0000 C   0  0  0  0  0  0  0  0  0  0  0  0
    5.2500   -3.8971    0.0000 C   0  0  0  0  0  0  0  0  0  0  0  0
    3.7500   -3.8971    0.0000 C   0  0  0  0  0  0  0  0  0  0  0  0
    3.0000   -5.1962    0.0000 C   0  0  0  0  0  0  0  0  0  0  0  0
    3.7500   -6.4952    0.0000 C   0  0  0  0  0  0  0  0  0  0  0  0
    1.9147   -5.3294    0.0000 C   0  0  0  0  0  0  0  0  0  0  0  0
    0.7500   -1.2990    0.0000 C   0  0  0  0  0  0  0  0  0  0  0  0
    1.5000    0.0000    0.0000 C   0  0  0  0  0  0  0  0  0  0  0  0
    0.7500    1.2990    0.0000 C   0  0  0  0  0  0  0  0  0  0  0  0
    1.5000    2.5981    0.0000 C   0  0  0  0  0  0  0  0  0  0  0  0
    3.0000    2.5981    0.0000 C   0  0  0  0  0  0  0  0  0  0  0  0
    3.7500    1.2990    0.0000 O   0  0  0  0  0  0  0  0  0  0  0  0
    3.7500    3.8971    0.0000 C   0  0  0  0  0  0  0  0  0  0  0  0
    3.0000    5.1962    0.0000 C   0  0  0  0  0  0  0  0  0  0  0  0
    1.5000    5.1962    0.0000 C   0  0  0  0  0  0  0  0  0  0  0  0
    0.7500    3.8971    0.0000 C   0  0  0  0  0  0  0  0  0  0  0  0
   -0.7500    3.8971    0.0000 F   0  0  0  0  0  0  0  0  0  0  0  0
   -0.7500    1.2990    0.0000 C   0  0  0  0  0  0  0  0  0  0  0  0
   -1.5000    2.5981    0.0000 Cl  0  0  0  0  0  0  0  0  0  0  0  0
   -1.5000    0.0000    0.0000 C   0  0  0  0  0  0  0  0  0  0  0  0
   -0.7500   -1.2990    0.0000 C   0  0  0  0  0  0  0  0  0  0  0  0
   -3.7500   -3.8971    0.0000 C   0  0  0  0  0  0  0  0  0  0  0  0
   -5.2500   -3.8971    0.0000 C   0  0  0  0  0  0  0  0  0  0  0  0
  1  2  2  0
  2  3  1  0
  3  4  2  0
  3  5  1  0
  5  6  1  0
  6  7  1  0
  7  8  1  0
  8  9  1  0
  9 10  2  0
 10 11  1  0
 11 12  2  0
 11 13  1  0
 13 14  1  0
 14 15  2  0
 15 16  1  0
 16 17  2  0
 17 18  1  0
 18 19  2  0
 19 20  1  0
 20 21  1  0
 20 22  1  0
 13 23  1  0
 23 24  2  0
 24 25  1  0
 25 26  1  0
 26 27  2  0
 27 28  1  0
 27 29  1  0
 29 30  2  0
 30 31  1  0
 31 32  2  0
 32 33  1  0
 25 34  2  0
 34 35  1  0
 34 36  1  0
 36 37  2  0
  8 38  1  0
 38 39  1  0
 39  5  1  0
 37  9  1  0
 19 14  1  0
 37 23  1  0
 32 26  1  0
M  END
>  <molecule_chembl_id>  (228) 
CHEMBL4517656

>  <canonical_smiles>  (228) 
C=CC(=O)N1CCN(c2nc(=O)n(-c3ccccc3C(C)C)c3cc(-c4c(O)cccc4F)c(Cl)cc23)CC1

>  <pchembl_value_mean>  (228) 
6.786667

>  <inchi>  (228) 
InChI=1S/C30H28ClFN4O3/c1-4-27(38)34-12-14-35(15-13-34)29-21-16-22(31)20(28-23(32)9-7-11-26(28)37)17-25(21)36(30(39)33-29)24-10-6-5-8-19(24)18(2)3/h4-11,16-18,37H,1,12-15H2,2-3H3

$$$$

     RDKit          2D

 42 48  0  0  0  0  0  0  0  0999 V2000
    8.1390   -7.7969    0.0000 C   0  0  0  0  0  0  0  0  0  0  0  0
    6.7687   -7.1868    0.0000 C   0  0  0  0  0  0  0  0  0  0  0  0
    6.6119   -5.6950    0.0000 C   0  0  0  0  0  0  0  0  0  0  0  0
    7.8254   -4.8133    0.0000 O   0  0  0  0  0  0  0  0  0  0  0  0
    5.2416   -5.0849    0.0000 N   0  0  0  0  0  0  0  0  0  0  0  0
    3.8412   -5.6225    0.0000 C   0  0  0  0  0  0  0  0  0  0  0  0
    3.3037   -4.2221    0.0000 C   0  0  0  0  0  0  0  0  0  0  0  0
    2.0046   -4.9721    0.0000 C   0  0  0  0  0  0  0  0  0  0  0  0
    0.8899   -3.9684    0.0000 C   0  0  0  0  0  0  0  0  0  0  0  0
    1.5000   -2.5981    0.0000 N   0  0  0  0  0  0  0  0  0  0  0  0
    0.7500   -1.2990    0.0000 C   0  0  0  0  0  0  0  0  0  0  0  0
    1.5000    0.0000    0.0000 N   0  0  0  0  0  0  0  0  0  0  0  0
    0.7500    1.2990    0.0000 C   0  0  0  0  0  0  0  0  0  0  0  0
    1.5000    2.5981    0.0000 N   0  0  0  0  0  0  0  0  0  0  0  0
    3.0000    2.5981    0.0000 C   0  0  0  0  0  0  0  0  0  0  0  0
    3.7500    1.2990    0.0000 C   0  0  0  0  0  0  0  0  0  0  0  0
    5.2500    1.2990    0.0000 C   0  0  0  0  0  0  0  0  0  0  0  0
    6.0000    2.5981    0.0000 N   0  0  0  0  0  0  0  0  0  0  0  0
    7.5000    2.5981    0.0000 C   0  0  0  0  0  0  0  0  0  0  0  0
    5.2500    3.8971    0.0000 C   0  0  0  0  0  0  0  0  0  0  0  0
    3.7500    3.8971    0.0000 C   0  0  0  0  0  0  0  0  0  0  0  0
   -0.7500    1.2990    0.0000 N   0  0  0  0  0  0  0  0  0  0  0  0
   -1.5000    0.0000    0.0000 C   0  0  0  0  0  0  0  0  0  0  0  0
   -3.0000    0.0000    0.0000 C   0  0  0  0  0  0  0  0  0  0  0  0
   -3.7500    1.2990    0.0000 F   0  0  0  0  0  0  0  0  0  0  0  0
   -3.7500   -1.2990    0.0000 C   0  0  0  0  0  0  0  0  0  0  0  0
   -5.2500   -1.2990    0.0000 C   0  0  0  0  0  0  0  0  0  0  0  0
   -6.0000    0.0000    0.0000 C   0  0  0  0  0  0  0  0  0  0  0  0
   -5.2500    1.2990    0.0000 C   0  0  0  0  0  0  0  0  0  0  0  0
   -7.5000    0.0000    0.0000 C   0  0  0  0  0  0  0  0  0  0  0  0
   -8.2500   -1.2990    0.0000 C   0  0  0  0  0  0  0  0  0  0  0  0
   -7.5000   -2.5981    0.0000 C   0  0  0  0  0  0  0  0  0  0  0  0
   -7.9635   -4.0247    0.0000 N   0  0  0  0  0  0  0  0  0  0  0  0
   -6.7500   -4.9063    0.0000 N   0  0  0  0  0  0  0  0  0  0  0  0
   -5.5365   -4.0247    0.0000 C   0  0  0  0  0  0  0  0  0  0  0  0
   -6.0000   -2.5981    0.0000 C   0  0  0  0  0  0  0  0  0  0  0  0
   -3.0000   -2.5981    0.0000 C   0  0  0  0  0  0  0  0  0  0  0  0
   -3.7500   -3.8971    0.0000 Cl  0  0  0  0  0  0  0  0  0  0  0  0
   -1.5000   -2.5981    0.0000 C   0  0  0  0  0  0  0  0  0  0  0  0
   -0.7500   -1.2990    0.0000 C   0  0  0  0  0  0  0  0  0  0  0  0
    2.9918   -2.7549    0.0000 C   0  0  0  0  0  0  0  0  0  0  0  0
    4.7040   -3.6845    0.0000 C   0  0  0  0  0  0  0  0  0  0  0  0
  1  2  2  0
  2  3  1  0
  3  4  2  0
  3  5  1  0
  5  6  1  0
  6  7  1  0
  7  8  1  0
  8  9  1  0
  9 10  1  0
 10 11  1  0
 11 12  2  0
 12 13  1  0
 13 14  1  0
 14 15  1  0
 15 16  1  0
 16 17  1  0
 17 18  1  0
 18 19  1  0
 18 20  1  0
 20 21  1  0
 13 22  2  0
 22 23  1  0
 23 24  2  0
 24 25  1  0
 24 26  1  0
 26 27  1  0
 27 28  2  0
 28 29  1  0
 28 30  1  0
 30 31  2  0
 31 32  1  0
 32 33  1  0
 33 34  1  0
 34 35  2  0
 35 36  1  0
 26 37  2  0
 37 38  1  0
 37 39  1  0
 39 40  2  0
 10 41  1  0
  7 42  1  0
 42  5  1  0
 41  7  1  0
 40 11  1  0
 21 15  1  0
 40 23  1  0
 36 27  1  0
 36 32  2  0
M  END
>  <molecule_chembl_id>  (229) 
CHEMBL5208546

>  <canonical_smiles>  (229) 
C=CC(=O)N1CC2(CCN(c3nc(NC4CCN(C)CC4)nc4c(F)c(-c5c(C)ccc6[nH]ncc56)c(Cl)cc34)C2)C1

>  <pchembl_value_mean>  (229) 
6.8

>  <inchi>  (229) 
InChI=1S/C31H34ClFN8O/c1-4-24(42)41-16-31(17-41)9-12-40(15-31)29-20-13-22(32)26(25-18(2)5-6-23-21(25)14-34-38-23)27(33)28(20)36-30(37-29)35-19-7-10-39(3)11-8-19/h4-6,13-14,19H,1,7-12,15-17H2,2-3H3,(H,34,38)(H,35,36,37)

$$$$

     RDKit          2D

 32 34  0  0  0  0  0  0  0  0999 V2000
    3.7500   -1.2990    0.0000 C   0  0  0  0  0  0  0  0  0  0  0  0
    3.0000    0.0000    0.0000 N   0  0  0  0  0  0  0  0  0  0  0  0
    1.5000    0.0000    0.0000 C   0  0  0  0  0  0  0  0  0  0  0  0
    0.7500   -1.2990    0.0000 C   0  0  0  0  0  0  0  0  0  0  0  0
   -0.7500   -1.2990    0.0000 C   0  0  0  0  0  0  0  0  0  0  0  0
   -1.5000   -2.5981    0.0000 N   0  0  0  0  0  0  0  0  0  0  0  0
   -3.0000   -2.5981    0.0000 C   0  0  0  0  0  0  0  0  0  0  0  0
   -3.7500   -3.8971    0.0000 C   0  0  0  0  0  0  0  0  0  0  0  0
   -3.7500   -1.2990    0.0000 C   0  0  0  0  0  0  0  0  0  0  0  0
   -5.2500   -1.2990    0.0000 C   0  0  0  0  0  0  0  0  0  0  0  0
   -6.0000    0.0000    0.0000 C   0  0  0  0  0  0  0  0  0  0  0  0
   -7.5000    0.0000    0.0000 C   0  0  0  0  0  0  0  0  0  0  0  0
   -8.2500    1.2990    0.0000 N   0  0  0  0  0  0  0  0  0  0  0  0
   -7.5000    2.5981    0.0000 C   0  0  0  0  0  0  0  0  0  0  0  0
   -6.0000    2.5981    0.0000 O   0  0  0  0  0  0  0  0  0  0  0  0
   -8.2500    3.8971    0.0000 N   0  0  0  0  0  0  0  0  0  0  0  0
   -7.5000    5.1962    0.0000 C   0  0  0  0  0  0  0  0  0  0  0  0
   -8.2500    6.4952    0.0000 C   0  0  0  0  0  0  0  0  0  0  0  0
   -9.7500    6.4952    0.0000 O   0  0  0  0  0  0  0  0  0  0  0  0
   -7.5000    7.7942    0.0000 C   0  0  0  0  0  0  0  0  0  0  0  0
   -8.7990    8.5442    0.0000 C   0  0  0  0  0  0  0  0  0  0  0  0
   -6.2010    7.0442    0.0000 C   0  0  0  0  0  0  0  0  0  0  0  0
   -6.7500    9.0933    0.0000 C   0  0  0  0  0  0  0  0  0  0  0  0
   -8.2500   -1.2990    0.0000 C   0  0  0  0  0  0  0  0  0  0  0  0
   -9.7500   -1.2990    0.0000 F   0  0  0  0  0  0  0  0  0  0  0  0
   -7.5000   -2.5981    0.0000 C   0  0  0  0  0  0  0  0  0  0  0  0
   -6.0000   -2.5981    0.0000 C   0  0  0  0  0  0  0  0  0  0  0  0
   -5.2500   -3.8971    0.0000 C   0  0  0  0  0  0  0  0  0  0  0  0
   -3.0000    0.0000    0.0000 C   0  0  0  0  0  0  0  0  0  0  0  0
   -1.5000    0.0000    0.0000 C   0  0  0  0  0  0  0  0  0  0  0  0
   -0.7500    1.2990    0.0000 C   0  0  0  0  0  0  0  0  0  0  0  0
    0.7500    1.2990    0.0000 N   0  0  0  0  0  0  0  0  0  0  0  0
  1  2  1  0
  2  3  1  0
  3  4  2  0
  4  5  1  0
  5  6  2  0
  6  7  1  0
  7  8  1  0
  7  9  2  0
  9 10  1  0
 10 11  2  0
 11 12  1  0
 12 13  1  0
 13 14  1  0
 14 15  2  0
 14 16  1  0
 16 17  1  0
 17 18  1  0
 18 19  1  1
 18 20  1  0
 20 21  1  0
 20 22  1  0
 20 23  1  0
 12 24  2  0
 24 25  1  0
 24 26  1  0
 26 27  2  0
 27 28  1  0
  9 29  1  0
 29 30  2  0
 30 31  1  0
 31 32  2  0
 32  3  1  0
 30  5  1  0
 27 10  1  0
M  END
>  <molecule_chembl_id>  (230) 
CHEMBL3577117

>  <canonical_smiles>  (230) 
CNc1cc2nc(C)c(-c3cc(NC(=O)NC[C@@H](O)C(C)(C)C)c(F)cc3C)cc2cn1

>  <pchembl_value_mean>  (230) 
6.8

>  <inchi>  (230) 
InChI=1S/C24H30FN5O2/c1-13-7-18(25)20(30-23(32)28-12-21(31)24(3,4)5)9-16(13)17-8-15-11-27-22(26-6)10-19(15)29-14(17)2/h7-11,21,31H,12H2,1-6H3,(H,26,27)(H2,28,30,32)/t21-/m1/s1

$$$$

     RDKit          2D

 40 45  0  0  0  0  0  0  0  0999 V2000
  -10.2078   -0.4760    0.0000 C   0  0  0  0  0  0  0  0  0  0  0  0
   -8.9943   -1.3576    0.0000 C   0  0  0  0  0  0  0  0  0  0  0  0
   -9.1510   -2.8494    0.0000 C   0  0  0  0  0  0  0  0  0  0  0  0
  -10.5214   -3.4595    0.0000 O   0  0  0  0  0  0  0  0  0  0  0  0
   -7.9375   -3.7311    0.0000 N   0  0  0  0  0  0  0  0  0  0  0  0
   -6.4560   -3.4965    0.0000 C   0  0  0  0  0  0  0  0  0  0  0  0
   -6.2213   -4.9780    0.0000 C   0  0  0  0  0  0  0  0  0  0  0  0
   -5.0078   -5.8597    0.0000 N   0  0  0  0  0  0  0  0  0  0  0  0
   -3.6375   -5.2496    0.0000 C   0  0  0  0  0  0  0  0  0  0  0  0
   -3.4807   -3.7578    0.0000 O   0  0  0  0  0  0  0  0  0  0  0  0
   -2.4240   -6.1312    0.0000 C   0  0  0  0  0  0  0  0  0  0  0  0
   -1.0537   -5.5211    0.0000 N   0  0  0  0  0  0  0  0  0  0  0  0
   -0.7418   -4.0539    0.0000 C   0  0  0  0  0  0  0  0  0  0  0  0
   -1.7455   -2.9392    0.0000 C   0  0  0  0  0  0  0  0  0  0  0  0
   -3.1721   -2.4757    0.0000 C   0  0  0  0  0  0  0  0  0  0  0  0
   -2.0573   -1.4720    0.0000 C   0  0  0  0  0  0  0  0  0  0  0  0
    0.7500   -3.8971    0.0000 C   0  0  0  0  0  0  0  0  0  0  0  0
    1.5000   -2.5981    0.0000 C   0  0  0  0  0  0  0  0  0  0  0  0
    3.0000   -2.5981    0.0000 O   0  0  0  0  0  0  0  0  0  0  0  0
    0.7500   -1.2990    0.0000 N   0  0  0  0  0  0  0  0  0  0  0  0
    1.5000    0.0000    0.0000 C   0  0  0  0  0  0  0  0  0  0  0  0
    0.7500    1.2990    0.0000 C   0  0  0  0  0  0  0  0  0  0  0  0
   -0.7500    1.2990    0.0000 C   0  0  0  0  0  0  0  0  0  0  0  0
   -1.5000    0.0000    0.0000 C   0  0  0  0  0  0  0  0  0  0  0  0
   -3.0000    0.0000    0.0000 C   0  0  0  0  0  0  0  0  0  0  0  0
   -3.7500    1.2990    0.0000 C   0  0  0  0  0  0  0  0  0  0  0  0
   -3.0000    2.5981    0.0000 C   0  0  0  0  0  0  0  0  0  0  0  0
   -1.5000    2.5981    0.0000 C   0  0  0  0  0  0  0  0  0  0  0  0
   -0.7500    3.8971    0.0000 O   0  0  0  0  0  0  0  0  0  0  0  0
   -1.5000    5.1962    0.0000 C   0  0  0  0  0  0  0  0  0  0  0  0
   -0.7500   -1.2990    0.0000 C   0  0  0  0  0  0  0  0  0  0  0  0
    1.3601   -5.2674    0.0000 C   0  0  0  0  0  0  0  0  0  0  0  0
    2.7867   -5.7310    0.0000 C   0  0  0  0  0  0  0  0  0  0  0  0
    3.0986   -7.1982    0.0000 C   0  0  0  0  0  0  0  0  0  0  0  0
    4.5251   -7.6617    0.0000 Cl  0  0  0  0  0  0  0  0  0  0  0  0
    1.9838   -8.2019    0.0000 C   0  0  0  0  0  0  0  0  0  0  0  0
    0.5573   -7.7383    0.0000 C   0  0  0  0  0  0  0  0  0  0  0  0
   -0.5575   -8.7420    0.0000 C   0  0  0  0  0  0  0  0  0  0  0  0
    0.2454   -6.2711    0.0000 C   0  0  0  0  0  0  0  0  0  0  0  0
   -7.7029   -5.2126    0.0000 C   0  0  0  0  0  0  0  0  0  0  0  0
  1  2  2  0
  2  3  1  0
  3  4  2  0
  3  5  1  0
  5  6  1  0
  6  7  1  0
  7  8  1  0
  8  9  1  0
  9 10  2  0
  9 11  1  0
 11 12  1  0
 12 13  1  0
 13 14  1  0
 14 15  1  0
 15 16  1  0
 13 17  2  0
 17 18  1  0
 18 19  2  0
 18 20  1  0
 20 21  1  0
 21 22  1  0
 22 23  1  0
 23 24  2  0
 24 25  1  0
 25 26  2  0
 26 27  1  0
 27 28  2  0
 28 29  1  0
 29 30  1  0
 24 31  1  0
 17 32  1  0
 32 33  2  0
 33 34  1  0
 34 35  1  0
 34 36  2  0
 36 37  1  0
 37 38  1  0
 37 39  2  0
  7 40  1  0
 40  5  1  0
 39 12  1  0
 16 14  1  0
 31 20  1  0
 39 32  1  0
 28 23  1  0
M  END
>  <molecule_chembl_id>  (231) 
CHEMBL4464335

>  <canonical_smiles>  (231) 
C=CC(=O)N1CC(NC(=O)Cn2c(C3CC3)c(C(=O)N3CCc4c(cccc4OC)C3)c3cc(Cl)cc(C)c32)C1

>  <pchembl_value_mean>  (231) 
6.8

>  <inchi>  (231) 
InChI=1S/C31H33ClN4O4/c1-4-27(38)35-15-22(16-35)33-26(37)17-36-29-18(2)12-21(32)13-24(29)28(30(36)19-8-9-19)31(39)34-11-10-23-20(14-34)6-5-7-25(23)40-3/h4-7,12-13,19,22H,1,8-11,14-17H2,2-3H3,(H,33,37)

$$$$

     RDKit          2D

 32 35  0  0  0  0  0  0  0  0999 V2000
    5.2500   -1.2990    0.0000 C   0  0  0  0  0  0  0  0  0  0  0  0
    3.7500   -1.2990    0.0000 C   0  0  0  0  0  0  0  0  0  0  0  0
    3.0000    0.0000    0.0000 C   0  0  0  0  0  0  0  0  0  0  0  0
    3.7500    1.2990    0.0000 O   0  0  0  0  0  0  0  0  0  0  0  0
    1.5000    0.0000    0.0000 N   0  0  0  0  0  0  0  0  0  0  0  0
    0.7500   -1.2990    0.0000 C   0  0  0  0  0  0  0  0  0  0  0  0
   -0.7500   -1.2990    0.0000 C   0  0  0  0  0  0  0  0  0  0  0  0
   -1.5000    0.0000    0.0000 N   0  0  0  0  0  0  0  0  0  0  0  0
   -2.9832   -0.2236    0.0000 C   0  0  0  0  0  0  0  0  0  0  0  0
   -4.0828    0.7967    0.0000 C   0  0  0  0  0  0  0  0  0  0  0  0
   -5.4343    0.1459    0.0000 C   0  0  0  0  0  0  0  0  0  0  0  0
   -6.6736    0.9909    0.0000 C   0  0  0  0  0  0  0  0  0  0  0  0
   -8.0251    0.3400    0.0000 O   0  0  0  0  0  0  0  0  0  0  0  0
   -8.1372   -1.1558    0.0000 C   0  0  0  0  0  0  0  0  0  0  0  0
   -9.4886   -1.8066    0.0000 F   0  0  0  0  0  0  0  0  0  0  0  0
   -6.8978   -2.0008    0.0000 F   0  0  0  0  0  0  0  0  0  0  0  0
   -6.5615    2.4867    0.0000 C   0  0  0  0  0  0  0  0  0  0  0  0
   -7.8009    3.3316    0.0000 C   0  0  0  0  0  0  0  0  0  0  0  0
   -7.6888    4.8274    0.0000 C   0  0  0  0  0  0  0  0  0  0  0  0
   -6.3374    5.4783    0.0000 O   0  0  0  0  0  0  0  0  0  0  0  0
   -8.9282    5.6724    0.0000 C   0  0  0  0  0  0  0  0  0  0  0  0
  -10.2796    5.0216    0.0000 C   0  0  0  0  0  0  0  0  0  0  0  0
  -10.3917    3.5258    0.0000 C   0  0  0  0  0  0  0  0  0  0  0  0
   -9.1524    2.6808    0.0000 C   0  0  0  0  0  0  0  0  0  0  0  0
   -9.2644    1.1850    0.0000 Cl  0  0  0  0  0  0  0  0  0  0  0  0
   -5.2101    3.1375    0.0000 C   0  0  0  0  0  0  0  0  0  0  0  0
   -5.0980    4.6333    0.0000 F   0  0  0  0  0  0  0  0  0  0  0  0
   -3.9707    2.2925    0.0000 C   0  0  0  0  0  0  0  0  0  0  0  0
   -2.7314    3.1375    0.0000 O   0  0  0  0  0  0  0  0  0  0  0  0
   -1.2980    2.6953    0.0000 C   0  0  0  0  0  0  0  0  0  0  0  0
   -0.7500    1.2990    0.0000 C   0  0  0  0  0  0  0  0  0  0  0  0
    0.7500    1.2990    0.0000 C   0  0  0  0  0  0  0  0  0  0  0  0
  1  2  2  0
  2  3  1  0
  3  4  2  0
  3  5  1  0
  5  6  1  0
  6  7  1  0
  7  8  1  0
  8  9  1  0
  9 10  1  0
 10 11  2  0
 11 12  1  0
 12 13  1  0
 13 14  1  0
 14 15  1  0
 14 16  1  0
 12 17  2  0
 17 18  1  0
 18 19  2  0
 19 20  1  0
 19 21  1  0
 21 22  2  0
 22 23  1  0
 23 24  2  0
 24 25  1  0
 17 26  1  0
 26 27  1  0
 26 28  2  0
 28 29  1  0
 29 30  1  0
 31 30  1  1
 31 32  1  0
 32  5  1  0
 31  8  1  0
 28 10  1  0
 24 18  1  0
M  END
>  <molecule_chembl_id>  (232) 
CHEMBL5399669

>  <canonical_smiles>  (232) 
C=CC(=O)N1CCN2Cc3cc(OC(F)F)c(-c4c(O)cccc4Cl)c(F)c3OC[C@H]2C1

>  <pchembl_value_mean>  (232) 
6.8

>  <inchi>  (232) 
InChI=1S/C22H20ClF3N2O4/c1-2-17(30)28-7-6-27-9-12-8-16(32-22(25)26)19(18-14(23)4-3-5-15(18)29)20(24)21(12)31-11-13(27)10-28/h2-5,8,13,22,29H,1,6-7,9-11H2/t13-/m1/s1

$$$$

     RDKit          2D

 33 37  0  0  0  0  0  0  0  0999 V2000
    5.2500   -1.2990    0.0000 C   0  0  0  0  0  0  0  0  0  0  0  0
    3.7500   -1.2990    0.0000 C   0  0  0  0  0  0  0  0  0  0  0  0
    3.0000    0.0000    0.0000 C   0  0  0  0  0  0  0  0  0  0  0  0
    3.7500    1.2990    0.0000 O   0  0  0  0  0  0  0  0  0  0  0  0
    1.5000    0.0000    0.0000 N   0  0  0  0  0  0  0  0  0  0  0  0
    0.7500   -1.2990    0.0000 C   0  0  0  0  0  0  0  0  0  0  0  0
   -0.7500   -1.2990    0.0000 C   0  0  0  0  0  0  0  0  0  0  0  0
   -1.5000    0.0000    0.0000 N   0  0  0  0  0  0  0  0  0  0  0  0
   -3.0000    0.0000    0.0000 C   0  0  0  0  0  0  0  0  0  0  0  0
   -3.7500    1.2990    0.0000 C   0  0  0  0  0  0  0  0  0  0  0  0
   -5.2500    1.2990    0.0000 C   0  0  0  0  0  0  0  0  0  0  0  0
   -6.0000    0.0000    0.0000 N   0  0  0  0  0  0  0  0  0  0  0  0
   -5.2500   -1.2990    0.0000 C   0  0  0  0  0  0  0  0  0  0  0  0
   -6.0000   -2.5981    0.0000 C   0  0  0  0  0  0  0  0  0  0  0  0
   -5.2500   -3.8971    0.0000 C   0  0  0  0  0  0  0  0  0  0  0  0
   -6.0000   -5.1962    0.0000 C   0  0  0  0  0  0  0  0  0  0  0  0
   -7.5000   -5.1962    0.0000 C   0  0  0  0  0  0  0  0  0  0  0  0
   -8.2500   -3.8971    0.0000 O   0  0  0  0  0  0  0  0  0  0  0  0
   -8.2500   -6.4952    0.0000 C   0  0  0  0  0  0  0  0  0  0  0  0
   -7.5000   -7.7942    0.0000 C   0  0  0  0  0  0  0  0  0  0  0  0
   -6.0000   -7.7942    0.0000 C   0  0  0  0  0  0  0  0  0  0  0  0
   -5.2500   -6.4952    0.0000 C   0  0  0  0  0  0  0  0  0  0  0  0
   -3.7500   -6.4952    0.0000 F   0  0  0  0  0  0  0  0  0  0  0  0
   -3.7500   -3.8971    0.0000 C   0  0  0  0  0  0  0  0  0  0  0  0
   -3.0000   -5.1962    0.0000 Cl  0  0  0  0  0  0  0  0  0  0  0  0
   -3.0000   -2.5981    0.0000 C   0  0  0  0  0  0  0  0  0  0  0  0
   -3.7500   -1.2990    0.0000 C   0  0  0  0  0  0  0  0  0  0  0  0
   -3.0000    2.5981    0.0000 N   0  0  0  0  0  0  0  0  0  0  0  0
   -3.7500    3.8971    0.0000 C   0  0  0  0  0  0  0  0  0  0  0  0
   -1.5000    2.5981    0.0000 C   0  0  0  0  0  0  0  0  0  0  0  0
   -0.7500    3.8971    0.0000 O   0  0  0  0  0  0  0  0  0  0  0  0
   -0.7500    1.2990    0.0000 C   0  0  0  0  0  0  0  0  0  0  0  0
    0.7500    1.2990    0.0000 C   0  0  0  0  0  0  0  0  0  0  0  0
  1  2  2  0
  2  3  1  0
  3  4  2  0
  3  5  1  0
  5  6  1  0
  6  7  1  0
  7  8  1  0
  8  9  1  0
  9 10  2  0
 10 11  1  0
 11 12  2  0
 12 13  1  0
 13 14  2  0
 14 15  1  0
 15 16  1  0
 16 17  2  0
 17 18  1  0
 17 19  1  0
 19 20  2  0
 20 21  1  0
 21 22  2  0
 22 23  1  0
 15 24  2  0
 24 25  1  0
 24 26  1  0
 26 27  2  0
 10 28  1  0
 28 29  1  0
 28 30  1  0
 30 31  2  0
 30 32  1  0
 32 33  1  1
 33  5  1  0
 32  8  1  0
 27  9  1  0
 27 13  1  0
 22 16  1  0
M  END
>  <molecule_chembl_id>  (233) 
CHEMBL4551121

>  <canonical_smiles>  (233) 
C=CC(=O)N1CCN2c3c(cnc4cc(-c5c(O)cccc5F)c(Cl)cc34)N(C)C(=O)[C@H]2C1

>  <pchembl_value_mean>  (233) 
6.82

>  <inchi>  (233) 
InChI=1S/C24H20ClFN4O3/c1-3-21(32)29-7-8-30-19(12-29)24(33)28(2)18-11-27-17-10-13(15(25)9-14(17)23(18)30)22-16(26)5-4-6-20(22)31/h3-6,9-11,19,31H,1,7-8,12H2,2H3/t19-/m1/s1

$$$$

     RDKit          2D

 31 33  0  0  0  0  0  0  0  0999 V2000
    3.7500   -1.2990    0.0000 C   0  0  0  0  0  0  0  0  0  0  0  0
    3.0000    0.0000    0.0000 N   0  0  0  0  0  0  0  0  0  0  0  0
    1.5000    0.0000    0.0000 C   0  0  0  0  0  0  0  0  0  0  0  0
    0.7500   -1.2990    0.0000 N   0  0  0  0  0  0  0  0  0  0  0  0
   -0.7500   -1.2990    0.0000 C   0  0  0  0  0  0  0  0  0  0  0  0
   -1.5000    0.0000    0.0000 C   0  0  0  0  0  0  0  0  0  0  0  0
   -3.0000    0.0000    0.0000 C   0  0  0  0  0  0  0  0  0  0  0  0
   -3.7500    1.2990    0.0000 C   0  0  0  0  0  0  0  0  0  0  0  0
   -5.2500    1.2990    0.0000 C   0  0  0  0  0  0  0  0  0  0  0  0
   -6.0000    2.5981    0.0000 C   0  0  0  0  0  0  0  0  0  0  0  0
   -7.5000    2.5981    0.0000 C   0  0  0  0  0  0  0  0  0  0  0  0
   -8.2500    3.8971    0.0000 N   0  0  0  0  0  0  0  0  0  0  0  0
   -7.5000    5.1962    0.0000 C   0  0  0  0  0  0  0  0  0  0  0  0
   -6.0000    5.1962    0.0000 O   0  0  0  0  0  0  0  0  0  0  0  0
   -8.2500    6.4952    0.0000 N   0  0  0  0  0  0  0  0  0  0  0  0
   -7.5000    7.7942    0.0000 C   0  0  0  0  0  0  0  0  0  0  0  0
   -8.2500    9.0933    0.0000 C   0  0  0  0  0  0  0  0  0  0  0  0
   -7.5000   10.3923    0.0000 C   0  0  0  0  0  0  0  0  0  0  0  0
   -8.7990   11.1423    0.0000 C   0  0  0  0  0  0  0  0  0  0  0  0
   -6.2010    9.6423    0.0000 C   0  0  0  0  0  0  0  0  0  0  0  0
   -6.7500   11.6913    0.0000 C   0  0  0  0  0  0  0  0  0  0  0  0
   -8.2500    1.2990    0.0000 C   0  0  0  0  0  0  0  0  0  0  0  0
   -9.7500    1.2990    0.0000 F   0  0  0  0  0  0  0  0  0  0  0  0
   -7.5000    0.0000    0.0000 C   0  0  0  0  0  0  0  0  0  0  0  0
   -6.0000    0.0000    0.0000 C   0  0  0  0  0  0  0  0  0  0  0  0
   -5.2500   -1.2990    0.0000 C   0  0  0  0  0  0  0  0  0  0  0  0
   -3.0000    2.5981    0.0000 C   0  0  0  0  0  0  0  0  0  0  0  0
   -3.7500    3.8971    0.0000 C   0  0  0  0  0  0  0  0  0  0  0  0
   -1.5000    2.5981    0.0000 N   0  0  0  0  0  0  0  0  0  0  0  0
   -0.7500    1.2990    0.0000 C   0  0  0  0  0  0  0  0  0  0  0  0
    0.7500    1.2990    0.0000 N   0  0  0  0  0  0  0  0  0  0  0  0
  1  2  1  0
  2  3  1  0
  3  4  2  0
  4  5  1  0
  5  6  2  0
  6  7  1  0
  7  8  2  0
  8  9  1  0
  9 10  2  0
 10 11  1  0
 11 12  1  0
 12 13  1  0
 13 14  2  0
 13 15  1  0
 15 16  1  0
 16 17  1  0
 17 18  1  0
 18 19  1  0
 18 20  1  0
 18 21  1  0
 11 22  2  0
 22 23  1  0
 22 24  1  0
 24 25  2  0
 25 26  1  0
  8 27  1  0
 27 28  1  0
 27 29  2  0
 29 30  1  0
 30 31  2  0
 31  3  1  0
 30  6  1  0
 25  9  1  0
M  END
>  <molecule_chembl_id>  (234) 
CHEMBL3577124

>  <canonical_smiles>  (234) 
CNc1ncc2cc(-c3cc(NC(=O)NCCC(C)(C)C)c(F)cc3C)c(C)nc2n1

>  <pchembl_value_mean>  (234) 
6.82

>  <inchi>  (234) 
InChI=1S/C23H29FN6O/c1-13-9-18(24)19(29-22(31)26-8-7-23(3,4)5)11-16(13)17-10-15-12-27-21(25-6)30-20(15)28-14(17)2/h9-12H,7-8H2,1-6H3,(H2,26,29,31)(H,25,27,28,30)

$$$$

     RDKit          2D

 29 32  0  0  0  0  0  0  0  0999 V2000
    5.2500   -1.2990    0.0000 C   0  0  0  0  0  0  0  0  0  0  0  0
    3.7500   -1.2990    0.0000 C   0  0  0  0  0  0  0  0  0  0  0  0
    3.0000    0.0000    0.0000 C   0  0  0  0  0  0  0  0  0  0  0  0
    3.7500    1.2990    0.0000 O   0  0  0  0  0  0  0  0  0  0  0  0
    1.5000    0.0000    0.0000 N   0  0  0  0  0  0  0  0  0  0  0  0
    0.7500   -1.2990    0.0000 C   0  0  0  0  0  0  0  0  0  0  0  0
   -0.7500   -1.2990    0.0000 C   0  0  0  0  0  0  0  0  0  0  0  0
   -1.5000    0.0000    0.0000 N   0  0  0  0  0  0  0  0  0  0  0  0
   -2.9832   -0.2236    0.0000 C   0  0  0  0  0  0  0  0  0  0  0  0
   -4.0828    0.7967    0.0000 C   0  0  0  0  0  0  0  0  0  0  0  0
   -5.4343    0.1459    0.0000 C   0  0  0  0  0  0  0  0  0  0  0  0
   -6.6736    0.9909    0.0000 C   0  0  0  0  0  0  0  0  0  0  0  0
   -8.0251    0.3400    0.0000 F   0  0  0  0  0  0  0  0  0  0  0  0
   -6.5615    2.4867    0.0000 C   0  0  0  0  0  0  0  0  0  0  0  0
   -7.8009    3.3316    0.0000 C   0  0  0  0  0  0  0  0  0  0  0  0
   -7.6888    4.8274    0.0000 C   0  0  0  0  0  0  0  0  0  0  0  0
   -6.3374    5.4783    0.0000 O   0  0  0  0  0  0  0  0  0  0  0  0
   -8.9282    5.6724    0.0000 C   0  0  0  0  0  0  0  0  0  0  0  0
  -10.2796    5.0216    0.0000 C   0  0  0  0  0  0  0  0  0  0  0  0
  -10.3917    3.5258    0.0000 C   0  0  0  0  0  0  0  0  0  0  0  0
   -9.1524    2.6808    0.0000 C   0  0  0  0  0  0  0  0  0  0  0  0
   -9.2644    1.1850    0.0000 F   0  0  0  0  0  0  0  0  0  0  0  0
   -5.2101    3.1375    0.0000 C   0  0  0  0  0  0  0  0  0  0  0  0
   -5.0980    4.6333    0.0000 Cl  0  0  0  0  0  0  0  0  0  0  0  0
   -3.9707    2.2925    0.0000 C   0  0  0  0  0  0  0  0  0  0  0  0
   -2.7314    3.1375    0.0000 O   0  0  0  0  0  0  0  0  0  0  0  0
   -1.2980    2.6953    0.0000 C   0  0  0  0  0  0  0  0  0  0  0  0
   -0.7500    1.2990    0.0000 C   0  0  0  0  0  0  0  0  0  0  0  0
    0.7500    1.2990    0.0000 C   0  0  0  0  0  0  0  0  0  0  0  0
  1  2  2  0
  2  3  1  0
  3  4  2  0
  3  5  1  0
  5  6  1  0
  6  7  1  0
  7  8  1  0
  8  9  1  0
  9 10  1  0
 10 11  2  0
 11 12  1  0
 12 13  1  0
 12 14  2  0
 14 15  1  0
 15 16  2  0
 16 17  1  0
 16 18  1  0
 18 19  2  0
 19 20  1  0
 20 21  2  0
 21 22  1  0
 14 23  1  0
 23 24  1  0
 23 25  2  0
 25 26  1  0
 26 27  1  0
 28 27  1  1
 28 29  1  0
 29  5  1  0
 28  8  1  0
 25 10  1  0
 21 15  1  0
M  END
>  <molecule_chembl_id>  (235) 
CHEMBL5423732

>  <canonical_smiles>  (235) 
C=CC(=O)N1CCN2Cc3cc(F)c(-c4c(O)cccc4F)c(Cl)c3OC[C@H]2C1

>  <pchembl_value_mean>  (235) 
6.83

>  <inchi>  (235) 
InChI=1S/C21H19ClF2N2O3/c1-2-17(28)26-7-6-25-9-12-8-15(24)19(18-14(23)4-3-5-16(18)27)20(22)21(12)29-11-13(25)10-26/h2-5,8,13,27H,1,6-7,9-11H2/t13-/m1/s1

$$$$

     RDKit          2D

 39 43  0  0  0  0  0  0  0  0999 V2000
   -9.7500   -1.2990    0.0000 C   0  0  0  0  0  0  0  0  0  0  0  0
   -8.2500   -1.2990    0.0000 C   0  0  0  0  0  0  0  0  0  0  0  0
   -7.5000   -2.5981    0.0000 C   0  0  0  0  0  0  0  0  0  0  0  0
   -8.2500   -3.8971    0.0000 O   0  0  0  0  0  0  0  0  0  0  0  0
   -6.0000   -2.5981    0.0000 N   0  0  0  0  0  0  0  0  0  0  0  0
   -5.2500   -1.2990    0.0000 C   0  0  0  0  0  0  0  0  0  0  0  0
   -3.7500   -1.2990    0.0000 C   0  0  0  0  0  0  0  0  0  0  0  0
   -3.0000   -2.5981    0.0000 N   0  0  0  0  0  0  0  0  0  0  0  0
   -1.5000   -2.5981    0.0000 C   0  0  0  0  0  0  0  0  0  0  0  0
   -0.7500   -3.8971    0.0000 N   0  0  0  0  0  0  0  0  0  0  0  0
    0.7500   -3.8971    0.0000 C   0  0  0  0  0  0  0  0  0  0  0  0
    1.1772   -4.9037    0.0000 O   0  0  0  0  0  0  0  0  0  0  0  0
    1.5000   -2.5981    0.0000 N   0  0  0  0  0  0  0  0  0  0  0  0
    3.0000   -2.5981    0.0000 C   0  0  0  0  0  0  0  0  0  0  0  0
    3.7500   -1.2990    0.0000 C   0  0  0  0  0  0  0  0  0  0  0  0
    5.2500   -1.2990    0.0000 C   0  0  0  0  0  0  0  0  0  0  0  0
    6.0000   -2.5981    0.0000 C   0  0  0  0  0  0  0  0  0  0  0  0
    5.2500   -3.8971    0.0000 C   0  0  0  0  0  0  0  0  0  0  0  0
    3.7500   -3.8971    0.0000 C   0  0  0  0  0  0  0  0  0  0  0  0
    3.0000   -5.1962    0.0000 C   0  0  0  0  0  0  0  0  0  0  0  0
    3.7500   -6.4952    0.0000 C   0  0  0  0  0  0  0  0  0  0  0  0
    1.9147   -5.3294    0.0000 C   0  0  0  0  0  0  0  0  0  0  0  0
    0.7500   -1.2990    0.0000 C   0  0  0  0  0  0  0  0  0  0  0  0
    1.5000    0.0000    0.0000 N   0  0  0  0  0  0  0  0  0  0  0  0
    0.7500    1.2990    0.0000 C   0  0  0  0  0  0  0  0  0  0  0  0
    1.5000    2.5981    0.0000 C   0  0  0  0  0  0  0  0  0  0  0  0
    3.0000    2.5981    0.0000 C   0  0  0  0  0  0  0  0  0  0  0  0
    3.7500    3.8971    0.0000 C   0  0  0  0  0  0  0  0  0  0  0  0
    3.0000    5.1962    0.0000 C   0  0  0  0  0  0  0  0  0  0  0  0
    1.5000    5.1962    0.0000 C   0  0  0  0  0  0  0  0  0  0  0  0
    0.7500    3.8971    0.0000 C   0  0  0  0  0  0  0  0  0  0  0  0
   -0.7500    3.8971    0.0000 O   0  0  0  0  0  0  0  0  0  0  0  0
   -0.7500    1.2990    0.0000 C   0  0  0  0  0  0  0  0  0  0  0  0
   -1.5000    2.5981    0.0000 Cl  0  0  0  0  0  0  0  0  0  0  0  0
   -1.5000    0.0000    0.0000 C   0  0  0  0  0  0  0  0  0  0  0  0
   -0.7500   -1.2990    0.0000 C   0  0  0  0  0  0  0  0  0  0  0  0
   -3.7500   -3.8971    0.0000 C   0  0  0  0  0  0  0  0  0  0  0  0
   -3.0000   -5.1962    0.0000 C   0  0  0  0  0  0  0  0  0  0  0  0
   -5.2500   -3.8971    0.0000 C   0  0  0  0  0  0  0  0  0  0  0  0
  1  2  2  0
  2  3  1  0
  3  4  2  0
  3  5  1  0
  5  6  1  0
  6  7  1  0
  7  8  1  0
  8  9  1  0
  9 10  2  0
 10 11  1  0
 11 12  2  0
 11 13  1  0
 13 14  1  0
 14 15  2  0
 15 16  1  0
 16 17  2  0
 17 18  1  0
 18 19  2  0
 19 20  1  0
 20 21  1  0
 20 22  1  0
 13 23  1  0
 23 24  2  0
 24 25  1  0
 25 26  1  0
 26 27  2  0
 27 28  1  0
 28 29  2  0
 29 30  1  0
 30 31  2  0
 31 32  1  0
 25 33  2  0
 33 34  1  0
 33 35  1  0
 35 36  2  0
  8 37  1  0
 37 38  1  1
 37 39  1  0
 39  5  1  0
 36  9  1  0
 19 14  1  0
 36 23  1  0
 31 26  1  0
M  END
>  <molecule_chembl_id>  (236) 
CHEMBL4450041

>  <canonical_smiles>  (236) 
C=CC(=O)N1CCN(c2nc(=O)n(-c3ccccc3C(C)C)c3nc(-c4ccccc4O)c(Cl)cc23)[C@@H](C)C1

>  <pchembl_value_mean>  (236) 
6.84

>  <inchi>  (236) 
InChI=1S/C30H30ClN5O3/c1-5-26(38)34-14-15-35(19(4)17-34)28-22-16-23(31)27(21-11-7-9-13-25(21)37)32-29(22)36(30(39)33-28)24-12-8-6-10-20(24)18(2)3/h5-13,16,18-19,37H,1,14-15,17H2,2-4H3/t19-/m0/s1

$$$$

     RDKit          2D

 41 45  0  0  0  0  0  0  0  0999 V2000
   -9.7500   -1.2990    0.0000 C   0  0  0  0  0  0  0  0  0  0  0  0
   -8.2500   -1.2990    0.0000 C   0  0  0  0  0  0  0  0  0  0  0  0
   -7.5000   -2.5981    0.0000 C   0  0  0  0  0  0  0  0  0  0  0  0
   -8.2500   -3.8971    0.0000 O   0  0  0  0  0  0  0  0  0  0  0  0
   -6.0000   -2.5981    0.0000 N   0  0  0  0  0  0  0  0  0  0  0  0
   -5.2500   -1.2990    0.0000 C   0  0  0  0  0  0  0  0  0  0  0  0
   -3.7500   -1.2990    0.0000 C   0  0  0  0  0  0  0  0  0  0  0  0
   -3.0000   -2.5981    0.0000 N   0  0  0  0  0  0  0  0  0  0  0  0
   -1.5000   -2.5981    0.0000 C   0  0  0  0  0  0  0  0  0  0  0  0
   -0.7500   -3.8971    0.0000 N   0  0  0  0  0  0  0  0  0  0  0  0
    0.7500   -3.8971    0.0000 C   0  0  0  0  0  0  0  0  0  0  0  0
    1.1772   -4.9037    0.0000 O   0  0  0  0  0  0  0  0  0  0  0  0
    1.5000   -2.5981    0.0000 N   0  0  0  0  0  0  0  0  0  0  0  0
    3.0000   -2.5981    0.0000 C   0  0  0  0  0  0  0  0  0  0  0  0
    3.7500   -3.8971    0.0000 C   0  0  0  0  0  0  0  0  0  0  0  0
    3.0000   -5.1962    0.0000 C   0  0  0  0  0  0  0  0  0  0  0  0
    3.7500   -6.4952    0.0000 C   0  0  0  0  0  0  0  0  0  0  0  0
    1.9147   -5.3294    0.0000 C   0  0  0  0  0  0  0  0  0  0  0  0
    5.2500   -3.8971    0.0000 C   0  0  0  0  0  0  0  0  0  0  0  0
    6.0000   -2.5981    0.0000 C   0  0  0  0  0  0  0  0  0  0  0  0
    5.2500   -1.2990    0.0000 N   0  0  0  0  0  0  0  0  0  0  0  0
    3.7500   -1.2990    0.0000 C   0  0  0  0  0  0  0  0  0  0  0  0
    3.0000   -0.0000    0.0000 C   0  0  0  0  0  0  0  0  0  0  0  0
    0.7500   -1.2990    0.0000 C   0  0  0  0  0  0  0  0  0  0  0  0
    1.5000    0.0000    0.0000 N   0  0  0  0  0  0  0  0  0  0  0  0
    0.7500    1.2990    0.0000 C   0  0  0  0  0  0  0  0  0  0  0  0
    1.5000    2.5981    0.0000 C   0  0  0  0  0  0  0  0  0  0  0  0
    3.0000    2.5981    0.0000 C   0  0  0  0  0  0  0  0  0  0  0  0
    3.7500    1.2990    0.0000 O   0  0  0  0  0  0  0  0  0  0  0  0
    3.7500    3.8971    0.0000 C   0  0  0  0  0  0  0  0  0  0  0  0
    3.0000    5.1962    0.0000 C   0  0  0  0  0  0  0  0  0  0  0  0
    1.5000    5.1962    0.0000 C   0  0  0  0  0  0  0  0  0  0  0  0
    0.7500    3.8971    0.0000 C   0  0  0  0  0  0  0  0  0  0  0  0
   -0.7500    3.8971    0.0000 F   0  0  0  0  0  0  0  0  0  0  0  0
   -0.7500    1.2990    0.0000 C   0  0  0  0  0  0  0  0  0  0  0  0
   -1.5000    2.5981    0.0000 F   0  0  0  0  0  0  0  0  0  0  0  0
   -1.5000    0.0000    0.0000 C   0  0  0  0  0  0  0  0  0  0  0  0
   -0.7500   -1.2990    0.0000 C   0  0  0  0  0  0  0  0  0  0  0  0
   -3.7500   -3.8971    0.0000 C   0  0  0  0  0  0  0  0  0  0  0  0
   -3.0000   -5.1962    0.0000 C   0  0  0  0  0  0  0  0  0  0  0  0
   -5.2500   -3.8971    0.0000 C   0  0  0  0  0  0  0  0  0  0  0  0
  1  2  2  0
  2  3  1  0
  3  4  2  0
  3  5  1  0
  5  6  1  0
  6  7  1  0
  7  8  1  0
  8  9  1  0
  9 10  2  0
 10 11  1  0
 11 12  2  0
 11 13  1  0
 13 14  1  0
 14 15  2  0
 15 16  1  0
 16 17  1  0
 16 18  1  0
 15 19  1  0
 19 20  2  0
 20 21  1  0
 21 22  2  0
 22 23  1  0
 13 24  1  0
 24 25  2  0
 25 26  1  0
 26 27  1  0
 27 28  2  0
 28 29  1  0
 28 30  1  0
 30 31  2  0
 31 32  1  0
 32 33  2  0
 33 34  1  0
 26 35  2  0
 35 36  1  0
 35 37  1  0
 37 38  2  0
  8 39  1  0
 39 40  1  1
 39 41  1  0
 41  5  1  0
 38  9  1  0
 22 14  1  0
 38 24  1  0
 33 27  1  0
M  END
>  <molecule_chembl_id>  (237) 
CHEMBL4458041

>  <canonical_smiles>  (237) 
C=CC(=O)N1CCN(c2nc(=O)n(-c3c(C(C)C)ccnc3C)c3nc(-c4c(O)cccc4F)c(F)cc23)[C@@H](C)C1

>  <pchembl_value_mean>  (237) 
6.85

>  <inchi>  (237) 
InChI=1S/C30H30F2N6O3/c1-6-24(40)36-12-13-37(17(4)15-36)28-20-14-22(32)26(25-21(31)8-7-9-23(25)39)34-29(20)38(30(41)35-28)27-18(5)33-11-10-19(27)16(2)3/h6-11,14,16-17,39H,1,12-13,15H2,2-5H3/t17-/m0/s1

$$$$

     RDKit          2D

 34 38  0  0  0  0  0  0  0  0999 V2000
   -9.4441    2.6382    0.0000 C   0  0  0  0  0  0  0  0  0  0  0  0
   -8.1450    1.8882    0.0000 C   0  0  0  0  0  0  0  0  0  0  0  0
   -6.8460    2.6382    0.0000 C   0  0  0  0  0  0  0  0  0  0  0  0
   -6.8460    4.1382    0.0000 O   0  0  0  0  0  0  0  0  0  0  0  0
   -5.5470    1.8882    0.0000 N   0  0  0  0  0  0  0  0  0  0  0  0
   -5.5470    0.3882    0.0000 C   0  0  0  0  0  0  0  0  0  0  0  0
   -4.2479   -0.3618    0.0000 C   0  0  0  0  0  0  0  0  0  0  0  0
   -4.6362   -1.8107    0.0000 C   0  0  0  0  0  0  0  0  0  0  0  0
   -3.8862   -3.1097    0.0000 C   0  0  0  0  0  0  0  0  0  0  0  0
   -2.4373   -3.4979    0.0000 O   0  0  0  0  0  0  0  0  0  0  0  0
   -1.1382   -2.7479    0.0000 C   0  0  0  0  0  0  0  0  0  0  0  0
   -0.3981   -4.0707    0.0000 C   0  0  0  0  0  0  0  0  0  0  0  0
   -0.9721   -5.4565    0.0000 Cl  0  0  0  0  0  0  0  0  0  0  0  0
    1.0891   -3.8749    0.0000 C   0  0  0  0  0  0  0  0  0  0  0  0
    2.0023   -5.0649    0.0000 C   0  0  0  0  0  0  0  0  0  0  0  0
    1.4282   -6.4507    0.0000 C   0  0  0  0  0  0  0  0  0  0  0  0
   -0.0589   -6.6465    0.0000 O   0  0  0  0  0  0  0  0  0  0  0  0
    2.3414   -7.6408    0.0000 C   0  0  0  0  0  0  0  0  0  0  0  0
    3.8285   -7.4450    0.0000 C   0  0  0  0  0  0  0  0  0  0  0  0
    4.4026   -6.0592    0.0000 C   0  0  0  0  0  0  0  0  0  0  0  0
    3.4894   -4.8691    0.0000 C   0  0  0  0  0  0  0  0  0  0  0  0
    4.0635   -3.4833    0.0000 F   0  0  0  0  0  0  0  0  0  0  0  0
    1.6631   -2.4891    0.0000 C   0  0  0  0  0  0  0  0  0  0  0  0
    3.1503   -2.2933    0.0000 F   0  0  0  0  0  0  0  0  0  0  0  0
    0.7500   -1.2990    0.0000 C   0  0  0  0  0  0  0  0  0  0  0  0
    1.5000    0.0000    0.0000 N   0  0  0  0  0  0  0  0  0  0  0  0
    0.7500    1.2990    0.0000 C   0  0  0  0  0  0  0  0  0  0  0  0
   -0.7500    1.2990    0.0000 N   0  0  0  0  0  0  0  0  0  0  0  0
   -1.5000    0.0000    0.0000 C   0  0  0  0  0  0  0  0  0  0  0  0
   -0.7500   -1.2990    0.0000 C   0  0  0  0  0  0  0  0  0  0  0  0
   -2.9489    0.3882    0.0000 N   0  0  0  0  0  0  0  0  0  0  0  0
   -2.9489    1.8882    0.0000 C   0  0  0  0  0  0  0  0  0  0  0  0
   -4.2479    2.6382    0.0000 C   0  0  0  0  0  0  0  0  0  0  0  0
   -4.2479    4.1382    0.0000 C   0  0  0  0  0  0  0  0  0  0  0  0
  1  2  2  0
  2  3  1  0
  3  4  2  0
  3  5  1  0
  5  6  1  0
  7  6  1  1
  7  8  1  0
  8  9  1  0
  9 10  1  0
 10 11  1  0
 11 12  2  0
 12 13  1  0
 12 14  1  0
 14 15  1  0
 15 16  2  0
 16 17  1  0
 16 18  1  0
 18 19  2  0
 19 20  1  0
 20 21  2  0
 21 22  1  0
 14 23  2  0
 23 24  1  0
 23 25  1  0
 25 26  2  0
 26 27  1  0
 27 28  2  0
 28 29  1  0
 29 30  2  0
 29 31  1  0
 31 32  1  0
 32 33  1  0
 33 34  1  1
 33  5  1  0
 31  7  1  0
 30 11  1  0
 21 15  1  0
 30 25  1  0
M  END
>  <molecule_chembl_id>  (238) 
CHEMBL5173371

>  <canonical_smiles>  (238) 
C=CC(=O)N1C[C@@H]2CCOc3c(Cl)c(-c4c(O)cccc4F)c(F)c4ncnc(c34)N2C[C@@H]1C

>  <pchembl_value_mean>  (238) 
6.86

>  <inchi>  (238) 
InChI=1S/C24H21ClF2N4O3/c1-3-16(33)30-10-13-7-8-34-23-19-22(28-11-29-24(19)31(13)9-12(30)2)21(27)18(20(23)25)17-14(26)5-4-6-15(17)32/h3-6,11-13,32H,1,7-10H2,2H3/t12-,13-/m0/s1

$$$$

     RDKit          2D

 33 37  0  0  0  0  0  0  0  0999 V2000
   -9.8163    0.9718    0.0000 C   0  0  0  0  0  0  0  0  0  0  0  0
   -8.3829    0.5297    0.0000 C   0  0  0  0  0  0  0  0  0  0  0  0
   -7.2833    1.5500    0.0000 C   0  0  0  0  0  0  0  0  0  0  0  0
   -7.6171    3.0124    0.0000 O   0  0  0  0  0  0  0  0  0  0  0  0
   -5.8500    1.1078    0.0000 N   0  0  0  0  0  0  0  0  0  0  0  0
   -5.5162   -0.3546    0.0000 C   0  0  0  0  0  0  0  0  0  0  0  0
   -4.0828   -0.7967    0.0000 C   0  0  0  0  0  0  0  0  0  0  0  0
   -3.9707   -2.2925    0.0000 C   0  0  0  0  0  0  0  0  0  0  0  0
   -2.7314   -3.1375    0.0000 O   0  0  0  0  0  0  0  0  0  0  0  0
   -1.2980   -2.6953    0.0000 C   0  0  0  0  0  0  0  0  0  0  0  0
   -0.5517   -4.0019    0.0000 C   0  0  0  0  0  0  0  0  0  0  0  0
   -1.2025   -5.3534    0.0000 Cl  0  0  0  0  0  0  0  0  0  0  0  0
    0.9442   -3.8898    0.0000 C   0  0  0  0  0  0  0  0  0  0  0  0
    1.7891   -5.1292    0.0000 C   0  0  0  0  0  0  0  0  0  0  0  0
    1.1383   -6.4807    0.0000 C   0  0  0  0  0  0  0  0  0  0  0  0
   -0.3575   -6.5928    0.0000 O   0  0  0  0  0  0  0  0  0  0  0  0
    1.9833   -7.7200    0.0000 C   0  0  0  0  0  0  0  0  0  0  0  0
    3.4791   -7.6079    0.0000 C   0  0  0  0  0  0  0  0  0  0  0  0
    4.1299   -6.2565    0.0000 C   0  0  0  0  0  0  0  0  0  0  0  0
    3.2849   -5.0171    0.0000 C   0  0  0  0  0  0  0  0  0  0  0  0
    3.9358   -3.6657    0.0000 F   0  0  0  0  0  0  0  0  0  0  0  0
    1.5950   -2.5384    0.0000 C   0  0  0  0  0  0  0  0  0  0  0  0
    3.0908   -2.4263    0.0000 F   0  0  0  0  0  0  0  0  0  0  0  0
    0.7500   -1.2990    0.0000 C   0  0  0  0  0  0  0  0  0  0  0  0
    1.5000    0.0000    0.0000 N   0  0  0  0  0  0  0  0  0  0  0  0
    0.7500    1.2990    0.0000 C   0  0  0  0  0  0  0  0  0  0  0  0
   -0.7500    1.2990    0.0000 N   0  0  0  0  0  0  0  0  0  0  0  0
   -1.5000    0.0000    0.0000 C   0  0  0  0  0  0  0  0  0  0  0  0
   -0.7500   -1.2990    0.0000 C   0  0  0  0  0  0  0  0  0  0  0  0
   -2.9832    0.2236    0.0000 N   0  0  0  0  0  0  0  0  0  0  0  0
   -3.3170    1.6860    0.0000 C   0  0  0  0  0  0  0  0  0  0  0  0
   -4.7504    2.1281    0.0000 C   0  0  0  0  0  0  0  0  0  0  0  0
   -5.0842    3.5905    0.0000 C   0  0  0  0  0  0  0  0  0  0  0  0
  1  2  2  0
  2  3  1  0
  3  4  2  0
  3  5  1  0
  5  6  1  0
  7  6  1  6
  7  8  1  0
  8  9  1  0
  9 10  1  0
 10 11  1  0
 11 12  1  0
 11 13  2  0
 13 14  1  0
 14 15  2  0
 15 16  1  0
 15 17  1  0
 17 18  2  0
 18 19  1  0
 19 20  2  0
 20 21  1  0
 13 22  1  0
 22 23  1  0
 22 24  2  0
 24 25  1  0
 25 26  2  0
 26 27  1  0
 27 28  2  0
 28 29  1  0
 28 30  1  0
 30 31  1  0
 31 32  1  0
 32 33  1  1
 32  5  1  0
 30  7  1  0
 29 10  2  0
 20 14  1  0
 29 24  1  0
M  END
>  <molecule_chembl_id>  (239) 
CHEMBL5190874

>  <canonical_smiles>  (239) 
C=CC(=O)N1C[C@H]2COc3c(Cl)c(-c4c(O)cccc4F)c(F)c4ncnc(c34)N2C[C@@H]1C

>  <pchembl_value_mean>  (239) 
6.87

>  <inchi>  (239) 
InChI=1S/C23H19ClF2N4O3/c1-3-15(32)29-8-12-9-33-22-18-21(27-10-28-23(18)30(12)7-11(29)2)20(26)17(19(22)24)16-13(25)5-4-6-14(16)31/h3-6,10-12,31H,1,7-9H2,2H3/t11-,12-/m0/s1

$$$$

     RDKit          2D

 32 36  0  0  0  0  0  0  0  0999 V2000
    5.2500   -1.2990    0.0000 C   0  0  0  0  0  0  0  0  0  0  0  0
    3.7500   -1.2990    0.0000 C   0  0  0  0  0  0  0  0  0  0  0  0
    3.0000    0.0000    0.0000 C   0  0  0  0  0  0  0  0  0  0  0  0
    3.7500    1.2990    0.0000 O   0  0  0  0  0  0  0  0  0  0  0  0
    1.5000    0.0000    0.0000 N   0  0  0  0  0  0  0  0  0  0  0  0
    0.7500   -1.2990    0.0000 C   0  0  0  0  0  0  0  0  0  0  0  0
   -0.7500   -1.2990    0.0000 C   0  0  0  0  0  0  0  0  0  0  0  0
   -1.5000    0.0000    0.0000 N   0  0  0  0  0  0  0  0  0  0  0  0
   -3.0000    0.0000    0.0000 C   0  0  0  0  0  0  0  0  0  0  0  0
   -3.7500    1.2990    0.0000 C   0  0  0  0  0  0  0  0  0  0  0  0
   -5.2500    1.2990    0.0000 C   0  0  0  0  0  0  0  0  0  0  0  0
   -6.0000    0.0000    0.0000 N   0  0  0  0  0  0  0  0  0  0  0  0
   -5.2500   -1.2990    0.0000 C   0  0  0  0  0  0  0  0  0  0  0  0
   -6.0000   -2.5981    0.0000 C   0  0  0  0  0  0  0  0  0  0  0  0
   -5.2500   -3.8971    0.0000 C   0  0  0  0  0  0  0  0  0  0  0  0
   -6.0000   -5.1962    0.0000 C   0  0  0  0  0  0  0  0  0  0  0  0
   -7.5000   -5.1962    0.0000 C   0  0  0  0  0  0  0  0  0  0  0  0
   -8.2500   -3.8971    0.0000 O   0  0  0  0  0  0  0  0  0  0  0  0
   -8.2500   -6.4952    0.0000 C   0  0  0  0  0  0  0  0  0  0  0  0
   -7.5000   -7.7942    0.0000 C   0  0  0  0  0  0  0  0  0  0  0  0
   -6.0000   -7.7942    0.0000 C   0  0  0  0  0  0  0  0  0  0  0  0
   -5.2500   -6.4952    0.0000 C   0  0  0  0  0  0  0  0  0  0  0  0
   -3.7500   -6.4952    0.0000 F   0  0  0  0  0  0  0  0  0  0  0  0
   -3.7500   -3.8971    0.0000 C   0  0  0  0  0  0  0  0  0  0  0  0
   -3.0000   -5.1962    0.0000 Cl  0  0  0  0  0  0  0  0  0  0  0  0
   -3.0000   -2.5981    0.0000 C   0  0  0  0  0  0  0  0  0  0  0  0
   -3.7500   -1.2990    0.0000 C   0  0  0  0  0  0  0  0  0  0  0  0
   -3.0000    2.5981    0.0000 N   0  0  0  0  0  0  0  0  0  0  0  0
   -3.7500    3.8971    0.0000 C   0  0  0  0  0  0  0  0  0  0  0  0
   -1.5000    2.5981    0.0000 C   0  0  0  0  0  0  0  0  0  0  0  0
   -0.7500    1.2990    0.0000 C   0  0  0  0  0  0  0  0  0  0  0  0
    0.7500    1.2990    0.0000 C   0  0  0  0  0  0  0  0  0  0  0  0
  1  2  2  0
  2  3  1  0
  3  4  2  0
  3  5  1  0
  5  6  1  0
  6  7  1  0
  7  8  1  0
  8  9  1  0
  9 10  2  0
 10 11  1  0
 11 12  2  0
 12 13  1  0
 13 14  2  0
 14 15  1  0
 15 16  1  0
 16 17  2  0
 17 18  1  0
 17 19  1  0
 19 20  2  0
 20 21  1  0
 21 22  2  0
 22 23  1  0
 15 24  2  0
 24 25  1  0
 24 26  1  0
 26 27  2  0
 10 28  1  0
 28 29  1  0
 28 30  1  0
 31 30  1  1
 31 32  1  0
 32  5  1  0
 31  8  1  0
 27  9  1  0
 27 13  1  0
 22 16  1  0
M  END
>  <molecule_chembl_id>  (240) 
CHEMBL4461913

>  <canonical_smiles>  (240) 
C=CC(=O)N1CCN2c3c(cnc4cc(-c5c(O)cccc5F)c(Cl)cc34)N(C)C[C@H]2C1

>  <pchembl_value_mean>  (240) 
6.88

>  <inchi>  (240) 
InChI=1S/C24H22ClFN4O2/c1-3-22(32)29-7-8-30-14(13-29)12-28(2)20-11-27-19-10-15(17(25)9-16(19)24(20)30)23-18(26)5-4-6-21(23)31/h3-6,9-11,14,31H,1,7-8,12-13H2,2H3/t14-/m0/s1

$$$$

     RDKit          2D

 41 45  0  0  0  0  0  0  0  0999 V2000
   -9.7500   -1.2990    0.0000 C   0  0  0  0  0  0  0  0  0  0  0  0
   -8.2500   -1.2990    0.0000 C   0  0  0  0  0  0  0  0  0  0  0  0
   -7.5000   -2.5981    0.0000 C   0  0  0  0  0  0  0  0  0  0  0  0
   -8.2500   -3.8971    0.0000 O   0  0  0  0  0  0  0  0  0  0  0  0
   -6.0000   -2.5981    0.0000 N   0  0  0  0  0  0  0  0  0  0  0  0
   -5.2500   -1.2990    0.0000 C   0  0  0  0  0  0  0  0  0  0  0  0
   -3.7500   -1.2990    0.0000 C   0  0  0  0  0  0  0  0  0  0  0  0
   -3.0000   -2.5981    0.0000 N   0  0  0  0  0  0  0  0  0  0  0  0
   -1.5000   -2.5981    0.0000 C   0  0  0  0  0  0  0  0  0  0  0  0
   -0.7500   -3.8971    0.0000 N   0  0  0  0  0  0  0  0  0  0  0  0
    0.7500   -3.8971    0.0000 C   0  0  0  0  0  0  0  0  0  0  0  0
    1.1772   -4.9037    0.0000 O   0  0  0  0  0  0  0  0  0  0  0  0
    1.5000   -2.5981    0.0000 N   0  0  0  0  0  0  0  0  0  0  0  0
    3.0000   -2.5981    0.0000 C   0  0  0  0  0  0  0  0  0  0  0  0
    3.7500   -1.2990    0.0000 C   0  0  0  0  0  0  0  0  0  0  0  0
    3.0000   -0.0000    0.0000 C   0  0  0  0  0  0  0  0  0  0  0  0
    5.2500   -1.2990    0.0000 N   0  0  0  0  0  0  0  0  0  0  0  0
    6.0000   -2.5981    0.0000 C   0  0  0  0  0  0  0  0  0  0  0  0
    5.2500   -3.8971    0.0000 N   0  0  0  0  0  0  0  0  0  0  0  0
    3.7500   -3.8971    0.0000 C   0  0  0  0  0  0  0  0  0  0  0  0
    3.0000   -5.1962    0.0000 C   0  0  0  0  0  0  0  0  0  0  0  0
    3.7500   -6.4952    0.0000 C   0  0  0  0  0  0  0  0  0  0  0  0
    1.9147   -5.3294    0.0000 C   0  0  0  0  0  0  0  0  0  0  0  0
    0.7500   -1.2990    0.0000 C   0  0  0  0  0  0  0  0  0  0  0  0
    1.5000    0.0000    0.0000 N   0  0  0  0  0  0  0  0  0  0  0  0
    0.7500    1.2990    0.0000 C   0  0  0  0  0  0  0  0  0  0  0  0
    1.5000    2.5981    0.0000 C   0  0  0  0  0  0  0  0  0  0  0  0
    3.0000    2.5981    0.0000 C   0  0  0  0  0  0  0  0  0  0  0  0
    3.7500    1.2990    0.0000 O   0  0  0  0  0  0  0  0  0  0  0  0
    3.7500    3.8971    0.0000 C   0  0  0  0  0  0  0  0  0  0  0  0
    3.0000    5.1962    0.0000 C   0  0  0  0  0  0  0  0  0  0  0  0
    1.5000    5.1962    0.0000 C   0  0  0  0  0  0  0  0  0  0  0  0
    0.7500    3.8971    0.0000 C   0  0  0  0  0  0  0  0  0  0  0  0
   -0.7500    3.8971    0.0000 F   0  0  0  0  0  0  0  0  0  0  0  0
   -0.7500    1.2990    0.0000 C   0  0  0  0  0  0  0  0  0  0  0  0
   -1.5000    2.5981    0.0000 F   0  0  0  0  0  0  0  0  0  0  0  0
   -1.5000    0.0000    0.0000 C   0  0  0  0  0  0  0  0  0  0  0  0
   -0.7500   -1.2990    0.0000 C   0  0  0  0  0  0  0  0  0  0  0  0
   -3.7500   -3.8971    0.0000 C   0  0  0  0  0  0  0  0  0  0  0  0
   -3.0000   -5.1962    0.0000 C   0  0  0  0  0  0  0  0  0  0  0  0
   -5.2500   -3.8971    0.0000 C   0  0  0  0  0  0  0  0  0  0  0  0
  1  2  2  0
  2  3  1  0
  3  4  2  0
  3  5  1  0
  5  6  1  0
  6  7  1  0
  7  8  1  0
  8  9  1  0
  9 10  2  0
 10 11  1  0
 11 12  2  0
 11 13  1  0
 13 14  1  0
 14 15  2  0
 15 16  1  0
 15 17  1  0
 17 18  2  0
 18 19  1  0
 19 20  2  0
 20 21  1  0
 21 22  1  0
 21 23  1  0
 13 24  1  0
 24 25  2  0
 25 26  1  0
 26 27  1  0
 27 28  2  0
 28 29  1  0
 28 30  1  0
 30 31  2  0
 31 32  1  0
 32 33  2  0
 33 34  1  0
 26 35  2  0
 35 36  1  0
 35 37  1  0
 37 38  2  0
  8 39  1  0
 39 40  1  1
 39 41  1  0
 41  5  1  0
 38  9  1  0
 20 14  1  0
 38 24  1  0
 33 27  1  0
M  END
>  <molecule_chembl_id>  (241) 
CHEMBL4441771

>  <canonical_smiles>  (241) 
C=CC(=O)N1CCN(c2nc(=O)n(-c3c(C)ncnc3C(C)C)c3nc(-c4c(O)cccc4F)c(F)cc23)[C@@H](C)C1

>  <pchembl_value_mean>  (241) 
6.89

>  <inchi>  (241) 
InChI=1S/C29H29F2N7O3/c1-6-22(40)36-10-11-37(16(4)13-36)27-18-12-20(31)25(23-19(30)8-7-9-21(23)39)34-28(18)38(29(41)35-27)26-17(5)32-14-33-24(26)15(2)3/h6-9,12,14-16,39H,1,10-11,13H2,2-5H3/t16-/m0/s1

$$$$

     RDKit          2D

 31 34  0  0  0  0  0  0  0  0999 V2000
    5.2500   -1.2990    0.0000 C   0  0  0  0  0  0  0  0  0  0  0  0
    3.7500   -1.2990    0.0000 C   0  0  0  0  0  0  0  0  0  0  0  0
    3.0000    0.0000    0.0000 C   0  0  0  0  0  0  0  0  0  0  0  0
    3.7500    1.2990    0.0000 O   0  0  0  0  0  0  0  0  0  0  0  0
    1.5000    0.0000    0.0000 N   0  0  0  0  0  0  0  0  0  0  0  0
    0.7500   -1.2990    0.0000 C   0  0  0  0  0  0  0  0  0  0  0  0
   -0.7500   -1.2990    0.0000 C   0  0  0  0  0  0  0  0  0  0  0  0
   -1.5000    0.0000    0.0000 N   0  0  0  0  0  0  0  0  0  0  0  0
   -2.9832   -0.2236    0.0000 C   0  0  0  0  0  0  0  0  0  0  0  0
   -4.0828    0.7967    0.0000 C   0  0  0  0  0  0  0  0  0  0  0  0
   -5.4343    0.1459    0.0000 C   0  0  0  0  0  0  0  0  0  0  0  0
   -6.6736    0.9909    0.0000 C   0  0  0  0  0  0  0  0  0  0  0  0
   -8.0251    0.3400    0.0000 C   0  0  0  0  0  0  0  0  0  0  0  0
   -8.1372   -1.1558    0.0000 F   0  0  0  0  0  0  0  0  0  0  0  0
   -8.8997    0.7912    0.0000 F   0  0  0  0  0  0  0  0  0  0  0  0
   -6.5615    2.4867    0.0000 C   0  0  0  0  0  0  0  0  0  0  0  0
   -7.8009    3.3316    0.0000 C   0  0  0  0  0  0  0  0  0  0  0  0
   -9.1524    2.6808    0.0000 C   0  0  0  0  0  0  0  0  0  0  0  0
   -9.3450    1.7157    0.0000 O   0  0  0  0  0  0  0  0  0  0  0  0
  -10.3917    3.5258    0.0000 C   0  0  0  0  0  0  0  0  0  0  0  0
  -10.2796    5.0216    0.0000 C   0  0  0  0  0  0  0  0  0  0  0  0
   -8.9282    5.6724    0.0000 C   0  0  0  0  0  0  0  0  0  0  0  0
   -7.6888    4.8274    0.0000 C   0  0  0  0  0  0  0  0  0  0  0  0
   -6.3374    5.4783    0.0000 Cl  0  0  0  0  0  0  0  0  0  0  0  0
   -5.2101    3.1375    0.0000 C   0  0  0  0  0  0  0  0  0  0  0  0
   -5.0980    4.6333    0.0000 F   0  0  0  0  0  0  0  0  0  0  0  0
   -3.9707    2.2925    0.0000 C   0  0  0  0  0  0  0  0  0  0  0  0
   -2.7314    3.1375    0.0000 O   0  0  0  0  0  0  0  0  0  0  0  0
   -1.2980    2.6953    0.0000 C   0  0  0  0  0  0  0  0  0  0  0  0
   -0.7500    1.2990    0.0000 C   0  0  0  0  0  0  0  0  0  0  0  0
    0.7500    1.2990    0.0000 C   0  0  0  0  0  0  0  0  0  0  0  0
  1  2  2  0
  2  3  1  0
  3  4  2  0
  3  5  1  0
  5  6  1  0
  6  7  1  0
  7  8  1  0
  8  9  1  0
  9 10  1  0
 10 11  2  0
 11 12  1  0
 12 13  1  0
 13 14  1  0
 13 15  1  0
 12 16  2  0
 16 17  1  0
 17 18  2  0
 18 19  1  0
 18 20  1  0
 20 21  2  0
 21 22  1  0
 22 23  2  0
 23 24  1  0
 16 25  1  0
 25 26  1  0
 25 27  2  0
 27 28  1  0
 28 29  1  0
 30 29  1  1
 30 31  1  0
 31  5  1  0
 30  8  1  0
 27 10  1  0
 23 17  1  0
M  END
>  <molecule_chembl_id>  (242) 
CHEMBL5397270

>  <canonical_smiles>  (242) 
C=CC(=O)N1CCN2Cc3cc(C(F)F)c(-c4c(O)cccc4Cl)c(F)c3OC[C@H]2C1

>  <pchembl_value_mean>  (242) 
6.89

>  <inchi>  (242) 
InChI=1S/C22H20ClF3N2O3/c1-2-17(30)28-7-6-27-9-12-8-14(22(25)26)18(19-15(23)4-3-5-16(19)29)20(24)21(12)31-11-13(27)10-28/h2-5,8,13,22,29H,1,6-7,9-11H2/t13-/m1/s1

$$$$

     RDKit          2D

 33 35  0  0  0  0  0  0  0  0999 V2000
   -3.7500   -1.2990    0.0000 C   0  0  0  0  0  0  0  0  0  0  0  0
   -3.0000   -2.5981    0.0000 C   0  0  0  0  0  0  0  0  0  0  0  0
   -1.5000   -2.5981    0.0000 N   0  0  0  0  0  0  0  0  0  0  0  0
   -0.7500   -3.8971    0.0000 C   0  0  0  0  0  0  0  0  0  0  0  0
   -1.5000   -5.1962    0.0000 O   0  0  0  0  0  0  0  0  0  0  0  0
    0.7500   -3.8971    0.0000 C   0  0  0  0  0  0  0  0  0  0  0  0
    1.5000   -5.1962    0.0000 C   0  0  0  0  0  0  0  0  0  0  0  0
    0.7500   -6.4952    0.0000 C   0  0  0  0  0  0  0  0  0  0  0  0
    1.5000   -7.7942    0.0000 C   0  0  0  0  0  0  0  0  0  0  0  0
    0.7500   -9.0933    0.0000 N   0  0  0  0  0  0  0  0  0  0  0  0
   -0.7500   -9.0933    0.0000 C   0  0  0  0  0  0  0  0  0  0  0  0
   -1.5000   -7.7942    0.0000 O   0  0  0  0  0  0  0  0  0  0  0  0
   -1.5000  -10.3923    0.0000 N   0  0  0  0  0  0  0  0  0  0  0  0
   -3.0000  -10.3923    0.0000 C   0  0  0  0  0  0  0  0  0  0  0  0
   -3.7500  -11.6913    0.0000 C   0  0  0  0  0  0  0  0  0  0  0  0
   -5.2500  -11.6913    0.0000 C   0  0  0  0  0  0  0  0  0  0  0  0
   -5.2500  -13.1913    0.0000 C   0  0  0  0  0  0  0  0  0  0  0  0
   -5.2500  -10.1913    0.0000 C   0  0  0  0  0  0  0  0  0  0  0  0
   -6.7500  -11.6913    0.0000 C   0  0  0  0  0  0  0  0  0  0  0  0
    3.0000   -7.7942    0.0000 C   0  0  0  0  0  0  0  0  0  0  0  0
    3.7500   -9.0933    0.0000 F   0  0  0  0  0  0  0  0  0  0  0  0
    3.7500   -6.4952    0.0000 C   0  0  0  0  0  0  0  0  0  0  0  0
    3.0000   -5.1962    0.0000 C   0  0  0  0  0  0  0  0  0  0  0  0
    3.7500   -3.8971    0.0000 C   0  0  0  0  0  0  0  0  0  0  0  0
    1.5000   -2.5981    0.0000 C   0  0  0  0  0  0  0  0  0  0  0  0
    0.7500   -1.2990    0.0000 C   0  0  0  0  0  0  0  0  0  0  0  0
    1.5000    0.0000    0.0000 C   0  0  0  0  0  0  0  0  0  0  0  0
    0.7500    1.2990    0.0000 N   0  0  0  0  0  0  0  0  0  0  0  0
   -0.7500    1.2990    0.0000 C   0  0  0  0  0  0  0  0  0  0  0  0
   -1.5000    2.5981    0.0000 N   0  0  0  0  0  0  0  0  0  0  0  0
   -0.7500    3.8971    0.0000 C   0  0  0  0  0  0  0  0  0  0  0  0
   -1.5000    0.0000    0.0000 C   0  0  0  0  0  0  0  0  0  0  0  0
   -0.7500   -1.2990    0.0000 C   0  0  0  0  0  0  0  0  0  0  0  0
  1  2  1  0
  2  3  1  0
  3  4  1  0
  4  5  2  0
  4  6  1  0
  6  7  1  0
  7  8  2  0
  8  9  1  0
  9 10  1  0
 10 11  1  0
 11 12  2  0
 11 13  1  0
 13 14  1  0
 14 15  1  0
 15 16  1  0
 16 17  1  0
 16 18  1  0
 16 19  1  0
  9 20  2  0
 20 21  1  0
 20 22  1  0
 22 23  2  0
 23 24  1  0
  6 25  2  0
 25 26  1  0
 26 27  2  0
 27 28  1  0
 28 29  2  0
 29 30  1  0
 30 31  1  0
 29 32  1  0
 32 33  2  0
 33  3  1  0
 23  7  1  0
 33 26  1  0
M  END
>  <molecule_chembl_id>  (243) 
CHEMBL3577116

>  <canonical_smiles>  (243) 
CCn1c(=O)c(-c2cc(NC(=O)NCCC(C)(C)C)c(F)cc2C)cc2cnc(NC)cc21

>  <pchembl_value_mean>  (243) 
6.92

>  <inchi>  (243) 
InChI=1S/C25H32FN5O2/c1-7-31-21-13-22(27-6)29-14-16(21)11-18(23(31)32)17-12-20(19(26)10-15(17)2)30-24(33)28-9-8-25(3,4)5/h10-14H,7-9H2,1-6H3,(H,27,29)(H2,28,30,33)

$$$$

     RDKit          2D

 39 44  0  0  0  0  0  0  0  0999 V2000
    3.7500   -9.0933    0.0000 C   0  0  0  0  0  0  0  0  0  0  0  0
    3.0000   -7.7942    0.0000 C   0  0  0  0  0  0  0  0  0  0  0  0
    3.7500   -6.4952    0.0000 C   0  0  0  0  0  0  0  0  0  0  0  0
    5.2500   -6.4952    0.0000 O   0  0  0  0  0  0  0  0  0  0  0  0
    3.0000   -5.1962    0.0000 N   0  0  0  0  0  0  0  0  0  0  0  0
    1.5000   -5.1962    0.0000 C   0  0  0  0  0  0  0  0  0  0  0  0
    0.7500   -3.8971    0.0000 C   0  0  0  0  0  0  0  0  0  0  0  0
    1.5000   -2.5981    0.0000 N   0  0  0  0  0  0  0  0  0  0  0  0
    0.7500   -1.2990    0.0000 C   0  0  0  0  0  0  0  0  0  0  0  0
    1.5000    0.0000    0.0000 N   0  0  0  0  0  0  0  0  0  0  0  0
    0.7500    1.2990    0.0000 C   0  0  0  0  0  0  0  0  0  0  0  0
    1.5000    2.5981    0.0000 N   0  0  0  0  0  0  0  0  0  0  0  0
    2.9489    2.9863    0.0000 C   0  0  0  0  0  0  0  0  0  0  0  0
    2.5607    4.4352    0.0000 C   0  0  0  0  0  0  0  0  0  0  0  0
    3.3107    5.7342    0.0000 N   0  0  0  0  0  0  0  0  0  0  0  0
    4.8107    5.7342    0.0000 C   0  0  0  0  0  0  0  0  0  0  0  0
    2.5607    7.0333    0.0000 C   0  0  0  0  0  0  0  0  0  0  0  0
    1.1118    4.0470    0.0000 C   0  0  0  0  0  0  0  0  0  0  0  0
   -0.7500    1.2990    0.0000 N   0  0  0  0  0  0  0  0  0  0  0  0
   -1.5000    0.0000    0.0000 C   0  0  0  0  0  0  0  0  0  0  0  0
   -0.7500   -1.2990    0.0000 C   0  0  0  0  0  0  0  0  0  0  0  0
   -1.5000   -2.5981    0.0000 C   0  0  0  0  0  0  0  0  0  0  0  0
   -3.0000   -2.5981    0.0000 C   0  0  0  0  0  0  0  0  0  0  0  0
   -3.7500   -3.8971    0.0000 C   0  0  0  0  0  0  0  0  0  0  0  0
   -3.7500   -1.2990    0.0000 C   0  0  0  0  0  0  0  0  0  0  0  0
   -5.2500   -1.2990    0.0000 C   0  0  0  0  0  0  0  0  0  0  0  0
   -6.0000   -2.5981    0.0000 C   0  0  0  0  0  0  0  0  0  0  0  0
   -5.2500   -3.8971    0.0000 Cl  0  0  0  0  0  0  0  0  0  0  0  0
   -7.5000   -2.5981    0.0000 C   0  0  0  0  0  0  0  0  0  0  0  0
   -8.2500   -3.8971    0.0000 C   0  0  0  0  0  0  0  0  0  0  0  0
   -8.2500   -1.2990    0.0000 C   0  0  0  0  0  0  0  0  0  0  0  0
   -7.5000   -0.0000    0.0000 C   0  0  0  0  0  0  0  0  0  0  0  0
   -7.9635    1.4266    0.0000 N   0  0  0  0  0  0  0  0  0  0  0  0
   -6.7500    2.3083    0.0000 N   0  0  0  0  0  0  0  0  0  0  0  0
   -5.5365    1.4266    0.0000 C   0  0  0  0  0  0  0  0  0  0  0  0
   -6.0000    0.0000    0.0000 C   0  0  0  0  0  0  0  0  0  0  0  0
   -3.0000    0.0000    0.0000 C   0  0  0  0  0  0  0  0  0  0  0  0
    3.0000   -2.5981    0.0000 C   0  0  0  0  0  0  0  0  0  0  0  0
    3.7500   -3.8971    0.0000 C   0  0  0  0  0  0  0  0  0  0  0  0
  1  2  2  0
  2  3  1  0
  3  4  2  0
  3  5  1  0
  5  6  1  0
  6  7  1  0
  7  8  1  0
  8  9  1  0
  9 10  2  0
 10 11  1  0
 11 12  1  0
 12 13  1  0
 13 14  1  0
 14 15  1  0
 15 16  1  0
 15 17  1  0
 14 18  1  0
 11 19  2  0
 19 20  1  0
 20 21  2  0
 21 22  1  0
 22 23  1  0
 23 24  1  1
 23 25  1  0
 25 26  1  6
 26 27  2  0
 27 28  1  0
 27 29  1  0
 29 30  1  0
 29 31  2  0
 31 32  1  0
 32 33  1  0
 33 34  1  0
 34 35  2  0
 35 36  1  0
 25 37  1  0
  8 38  1  0
 38 39  1  0
 39  5  1  0
 21  9  1  0
 36 26  1  0
 18 12  1  0
 37 20  1  0
 36 32  2  0
M  END
>  <molecule_chembl_id>  (244) 
CHEMBL4457820

>  <canonical_smiles>  (244) 
C=CC(=O)N1CCN(c2nc(N3CC(N(C)C)C3)nc3c2C[C@@H](C)[C@H](c2c(Cl)c(C)cc4[nH]ncc24)C3)CC1

>  <pchembl_value_mean>  (244) 
6.92

>  <inchi>  (244) 
InChI=1S/C29H37ClN8O/c1-6-25(39)36-7-9-37(10-8-36)28-21-11-17(2)20(26-22-14-31-34-24(22)12-18(3)27(26)30)13-23(21)32-29(33-28)38-15-19(16-38)35(4)5/h6,12,14,17,19-20H,1,7-11,13,15-16H2,2-5H3,(H,31,34)/t17-,20-/m1/s1

$$$$

     RDKit          2D

 34 37  0  0  0  0  0  0  0  0999 V2000
    5.2500   -1.2990    0.0000 C   0  0  0  0  0  0  0  0  0  0  0  0
    3.7500   -1.2990    0.0000 C   0  0  0  0  0  0  0  0  0  0  0  0
    3.0000    0.0000    0.0000 C   0  0  0  0  0  0  0  0  0  0  0  0
    3.7500    1.2990    0.0000 O   0  0  0  0  0  0  0  0  0  0  0  0
    1.5000    0.0000    0.0000 N   0  0  0  0  0  0  0  0  0  0  0  0
    0.7500   -1.2990    0.0000 C   0  0  0  0  0  0  0  0  0  0  0  0
   -0.7500   -1.2990    0.0000 C   0  0  0  0  0  0  0  0  0  0  0  0
   -1.5000    0.0000    0.0000 N   0  0  0  0  0  0  0  0  0  0  0  0
   -2.9832   -0.2236    0.0000 C   0  0  0  0  0  0  0  0  0  0  0  0
   -4.0828    0.7967    0.0000 C   0  0  0  0  0  0  0  0  0  0  0  0
   -5.4343    0.1459    0.0000 C   0  0  0  0  0  0  0  0  0  0  0  0
   -6.6736    0.9909    0.0000 C   0  0  0  0  0  0  0  0  0  0  0  0
   -8.0251    0.3400    0.0000 O   0  0  0  0  0  0  0  0  0  0  0  0
   -8.1372   -1.1558    0.0000 C   0  0  0  0  0  0  0  0  0  0  0  0
   -9.4886   -1.8066    0.0000 C   0  0  0  0  0  0  0  0  0  0  0  0
   -9.6007   -3.3024    0.0000 N   0  0  0  0  0  0  0  0  0  0  0  0
  -10.9522   -3.9532    0.0000 C   0  0  0  0  0  0  0  0  0  0  0  0
   -8.3614   -4.1474    0.0000 C   0  0  0  0  0  0  0  0  0  0  0  0
   -6.5615    2.4867    0.0000 C   0  0  0  0  0  0  0  0  0  0  0  0
   -7.8009    3.3316    0.0000 C   0  0  0  0  0  0  0  0  0  0  0  0
   -7.6888    4.8274    0.0000 C   0  0  0  0  0  0  0  0  0  0  0  0
   -6.3374    5.4783    0.0000 O   0  0  0  0  0  0  0  0  0  0  0  0
   -8.9282    5.6724    0.0000 C   0  0  0  0  0  0  0  0  0  0  0  0
  -10.2796    5.0216    0.0000 C   0  0  0  0  0  0  0  0  0  0  0  0
  -10.3917    3.5258    0.0000 C   0  0  0  0  0  0  0  0  0  0  0  0
   -9.1524    2.6808    0.0000 C   0  0  0  0  0  0  0  0  0  0  0  0
   -9.2644    1.1850    0.0000 Cl  0  0  0  0  0  0  0  0  0  0  0  0
   -5.2101    3.1375    0.0000 C   0  0  0  0  0  0  0  0  0  0  0  0
   -5.0980    4.6333    0.0000 F   0  0  0  0  0  0  0  0  0  0  0  0
   -3.9707    2.2925    0.0000 C   0  0  0  0  0  0  0  0  0  0  0  0
   -2.7314    3.1375    0.0000 O   0  0  0  0  0  0  0  0  0  0  0  0
   -1.2980    2.6953    0.0000 C   0  0  0  0  0  0  0  0  0  0  0  0
   -0.7500    1.2990    0.0000 C   0  0  0  0  0  0  0  0  0  0  0  0
    0.7500    1.2990    0.0000 C   0  0  0  0  0  0  0  0  0  0  0  0
  1  2  2  0
  2  3  1  0
  3  4  2  0
  3  5  1  0
  5  6  1  0
  6  7  1  0
  7  8  1  0
  8  9  1  0
  9 10  1  0
 10 11  2  0
 11 12  1  0
 12 13  1  0
 13 14  1  0
 14 15  1  0
 15 16  1  0
 16 17  1  0
 16 18  1  0
 12 19  2  0
 19 20  1  0
 20 21  2  0
 21 22  1  0
 21 23  1  0
 23 24  2  0
 24 25  1  0
 25 26  2  0
 26 27  1  0
 19 28  1  0
 28 29  1  0
 28 30  2  0
 30 31  1  0
 31 32  1  0
 33 32  1  1
 33 34  1  0
 34  5  1  0
 33  8  1  0
 30 10  1  0
 26 20  1  0
M  END
>  <molecule_chembl_id>  (245) 
CHEMBL5440242

>  <canonical_smiles>  (245) 
C=CC(=O)N1CCN2Cc3cc(OCCN(C)C)c(-c4c(O)cccc4Cl)c(F)c3OC[C@H]2C1

>  <pchembl_value_mean>  (245) 
6.96

>  <inchi>  (245) 
InChI=1S/C25H29ClFN3O4/c1-4-21(32)30-9-8-29-13-16-12-20(33-11-10-28(2)3)23(22-18(26)6-5-7-19(22)31)24(27)25(16)34-15-17(29)14-30/h4-7,12,17,31H,1,8-11,13-15H2,2-3H3/t17-/m1/s1

$$$$

     RDKit          2D

 34 37  0  0  0  0  0  0  0  0999 V2000
    5.2500   -1.2990    0.0000 C   0  0  0  0  0  0  0  0  0  0  0  0
    3.7500   -1.2990    0.0000 C   0  0  0  0  0  0  0  0  0  0  0  0
    3.0000    0.0000    0.0000 C   0  0  0  0  0  0  0  0  0  0  0  0
    3.7500    1.2990    0.0000 O   0  0  0  0  0  0  0  0  0  0  0  0
    1.5000    0.0000    0.0000 N   0  0  0  0  0  0  0  0  0  0  0  0
    0.7500   -1.2990    0.0000 C   0  0  0  0  0  0  0  0  0  0  0  0
   -0.7500   -1.2990    0.0000 C   0  0  0  0  0  0  0  0  0  0  0  0
   -1.5000    0.0000    0.0000 N   0  0  0  0  0  0  0  0  0  0  0  0
   -2.9832   -0.2236    0.0000 C   0  0  0  0  0  0  0  0  0  0  0  0
   -3.4254   -1.6569    0.0000 O   0  0  0  0  0  0  0  0  0  0  0  0
   -4.0828    0.7967    0.0000 C   0  0  0  0  0  0  0  0  0  0  0  0
   -5.4343    0.1459    0.0000 C   0  0  0  0  0  0  0  0  0  0  0  0
   -6.6736    0.9909    0.0000 C   0  0  0  0  0  0  0  0  0  0  0  0
   -8.0251    0.3400    0.0000 O   0  0  0  0  0  0  0  0  0  0  0  0
   -8.1372   -1.1558    0.0000 C   0  0  0  0  0  0  0  0  0  0  0  0
   -9.4886   -1.8066    0.0000 C   0  0  0  0  0  0  0  0  0  0  0  0
   -9.6007   -3.3024    0.0000 O   0  0  0  0  0  0  0  0  0  0  0  0
  -10.9522   -3.9532    0.0000 C   0  0  0  0  0  0  0  0  0  0  0  0
   -6.5615    2.4867    0.0000 C   0  0  0  0  0  0  0  0  0  0  0  0
   -7.8009    3.3316    0.0000 C   0  0  0  0  0  0  0  0  0  0  0  0
   -7.6888    4.8274    0.0000 C   0  0  0  0  0  0  0  0  0  0  0  0
   -6.3374    5.4783    0.0000 O   0  0  0  0  0  0  0  0  0  0  0  0
   -8.9282    5.6724    0.0000 C   0  0  0  0  0  0  0  0  0  0  0  0
  -10.2796    5.0216    0.0000 C   0  0  0  0  0  0  0  0  0  0  0  0
  -10.3917    3.5258    0.0000 C   0  0  0  0  0  0  0  0  0  0  0  0
   -9.1524    2.6808    0.0000 C   0  0  0  0  0  0  0  0  0  0  0  0
   -9.2644    1.1850    0.0000 Cl  0  0  0  0  0  0  0  0  0  0  0  0
   -5.2101    3.1375    0.0000 C   0  0  0  0  0  0  0  0  0  0  0  0
   -5.0980    4.6333    0.0000 F   0  0  0  0  0  0  0  0  0  0  0  0
   -3.9707    2.2925    0.0000 C   0  0  0  0  0  0  0  0  0  0  0  0
   -2.7314    3.1375    0.0000 O   0  0  0  0  0  0  0  0  0  0  0  0
   -1.2980    2.6953    0.0000 C   0  0  0  0  0  0  0  0  0  0  0  0
   -0.7500    1.2990    0.0000 C   0  0  0  0  0  0  0  0  0  0  0  0
    0.7500    1.2990    0.0000 C   0  0  0  0  0  0  0  0  0  0  0  0
  1  2  2  0
  2  3  1  0
  3  4  2  0
  3  5  1  0
  5  6  1  0
  6  7  1  0
  7  8  1  0
  8  9  1  0
  9 10  2  0
  9 11  1  0
 11 12  2  0
 12 13  1  0
 13 14  1  0
 14 15  1  0
 15 16  1  0
 16 17  1  0
 17 18  1  0
 13 19  2  0
 19 20  1  0
 20 21  2  0
 21 22  1  0
 21 23  1  0
 23 24  2  0
 24 25  1  0
 25 26  2  0
 26 27  1  0
 19 28  1  0
 28 29  1  0
 28 30  2  0
 30 31  1  0
 31 32  1  0
 33 32  1  1
 33 34  1  0
 34  5  1  0
 33  8  1  0
 30 11  1  0
 26 20  1  0
M  END
>  <molecule_chembl_id>  (246) 
CHEMBL5396905

>  <canonical_smiles>  (246) 
C=CC(=O)N1CCN2C(=O)c3cc(OCCOC)c(-c4c(O)cccc4Cl)c(F)c3OC[C@H]2C1

>  <pchembl_value_mean>  (246) 
7.0

>  <inchi>  (246) 
InChI=1S/C24H24ClFN2O6/c1-3-19(30)27-7-8-28-14(12-27)13-34-23-15(24(28)31)11-18(33-10-9-32-2)21(22(23)26)20-16(25)5-4-6-17(20)29/h3-6,11,14,29H,1,7-10,12-13H2,2H3/t14-/m1/s1

$$$$

     RDKit          2D

 32 36  0  0  0  0  0  0  0  0999 V2000
    5.2500   -1.2990    0.0000 C   0  0  0  0  0  0  0  0  0  0  0  0
    3.7500   -1.2990    0.0000 C   0  0  0  0  0  0  0  0  0  0  0  0
    3.0000    0.0000    0.0000 C   0  0  0  0  0  0  0  0  0  0  0  0
    3.7500    1.2990    0.0000 O   0  0  0  0  0  0  0  0  0  0  0  0
    1.5000    0.0000    0.0000 N   0  0  0  0  0  0  0  0  0  0  0  0
    0.7500   -1.2990    0.0000 C   0  0  0  0  0  0  0  0  0  0  0  0
   -0.7500   -1.2990    0.0000 C   0  0  0  0  0  0  0  0  0  0  0  0
   -1.5000    0.0000    0.0000 N   0  0  0  0  0  0  0  0  0  0  0  0
   -3.0000    0.0000    0.0000 C   0  0  0  0  0  0  0  0  0  0  0  0
   -3.7500    1.2990    0.0000 C   0  0  0  0  0  0  0  0  0  0  0  0
   -5.2500    1.2990    0.0000 C   0  0  0  0  0  0  0  0  0  0  0  0
   -6.0000    0.0000    0.0000 N   0  0  0  0  0  0  0  0  0  0  0  0
   -5.2500   -1.2990    0.0000 C   0  0  0  0  0  0  0  0  0  0  0  0
   -6.0000   -2.5981    0.0000 C   0  0  0  0  0  0  0  0  0  0  0  0
   -7.5000   -2.5981    0.0000 C   0  0  0  0  0  0  0  0  0  0  0  0
   -5.2500   -3.8971    0.0000 C   0  0  0  0  0  0  0  0  0  0  0  0
   -6.0000   -5.1962    0.0000 C   0  0  0  0  0  0  0  0  0  0  0  0
   -7.5000   -5.1962    0.0000 C   0  0  0  0  0  0  0  0  0  0  0  0
   -8.2500   -3.8971    0.0000 O   0  0  0  0  0  0  0  0  0  0  0  0
   -8.2500   -6.4952    0.0000 C   0  0  0  0  0  0  0  0  0  0  0  0
   -7.5000   -7.7942    0.0000 C   0  0  0  0  0  0  0  0  0  0  0  0
   -6.0000   -7.7942    0.0000 C   0  0  0  0  0  0  0  0  0  0  0  0
   -5.2500   -6.4952    0.0000 C   0  0  0  0  0  0  0  0  0  0  0  0
   -3.7500   -6.4952    0.0000 F   0  0  0  0  0  0  0  0  0  0  0  0
   -3.7500   -3.8971    0.0000 C   0  0  0  0  0  0  0  0  0  0  0  0
   -3.0000   -5.1962    0.0000 Cl  0  0  0  0  0  0  0  0  0  0  0  0
   -3.0000   -2.5981    0.0000 C   0  0  0  0  0  0  0  0  0  0  0  0
   -3.7500   -1.2990    0.0000 C   0  0  0  0  0  0  0  0  0  0  0  0
   -3.0000    2.5981    0.0000 O   0  0  0  0  0  0  0  0  0  0  0  0
   -1.5000    2.5981    0.0000 C   0  0  0  0  0  0  0  0  0  0  0  0
   -0.7500    1.2990    0.0000 C   0  0  0  0  0  0  0  0  0  0  0  0
    0.7500    1.2990    0.0000 C   0  0  0  0  0  0  0  0  0  0  0  0
  1  2  2  0
  2  3  1  0
  3  4  2  0
  3  5  1  0
  5  6  1  0
  6  7  1  0
  7  8  1  0
  8  9  1  0
  9 10  2  0
 10 11  1  0
 11 12  2  0
 12 13  1  0
 13 14  2  0
 14 15  1  0
 14 16  1  0
 16 17  1  0
 17 18  2  0
 18 19  1  0
 18 20  1  0
 20 21  2  0
 21 22  1  0
 22 23  2  0
 23 24  1  0
 16 25  2  0
 25 26  1  0
 25 27  1  0
 27 28  2  0
 10 29  1  0
 29 30  1  0
 31 30  1  1
 31 32  1  0
 32  5  1  0
 31  8  1  0
 28  9  1  0
 28 13  1  0
 23 17  1  0
M  END
>  <molecule_chembl_id>  (247) 
CHEMBL4567284

>  <canonical_smiles>  (247) 
C=CC(=O)N1CCN2c3c(cnc4c(C)c(-c5c(O)cccc5F)c(Cl)cc34)OC[C@H]2C1

>  <pchembl_value_mean>  (247) 
7.01

>  <inchi>  (247) 
InChI=1S/C24H21ClFN3O3/c1-3-20(31)28-7-8-29-14(11-28)12-32-19-10-27-23-13(2)21(16(25)9-15(23)24(19)29)22-17(26)5-4-6-18(22)30/h3-6,9-10,14,30H,1,7-8,11-12H2,2H3/t14-/m1/s1

$$$$

     RDKit          2D

 31 35  0  0  0  0  0  0  0  0999 V2000
    5.2500   -1.2990    0.0000 C   0  0  0  0  0  0  0  0  0  0  0  0
    3.7500   -1.2990    0.0000 C   0  0  0  0  0  0  0  0  0  0  0  0
    3.0000    0.0000    0.0000 C   0  0  0  0  0  0  0  0  0  0  0  0
    3.7500    1.2990    0.0000 O   0  0  0  0  0  0  0  0  0  0  0  0
    1.5000    0.0000    0.0000 N   0  0  0  0  0  0  0  0  0  0  0  0
    0.7500   -1.2990    0.0000 C   0  0  0  0  0  0  0  0  0  0  0  0
   -0.7500   -1.2990    0.0000 C   0  0  0  0  0  0  0  0  0  0  0  0
   -1.5000    0.0000    0.0000 N   0  0  0  0  0  0  0  0  0  0  0  0
   -2.9832   -0.2236    0.0000 C   0  0  0  0  0  0  0  0  0  0  0  0
   -3.3170   -1.6860    0.0000 N   0  0  0  0  0  0  0  0  0  0  0  0
   -4.7504   -2.1281    0.0000 C   0  0  0  0  0  0  0  0  0  0  0  0
   -5.8500   -1.1078    0.0000 N   0  0  0  0  0  0  0  0  0  0  0  0
   -5.5162    0.3546    0.0000 C   0  0  0  0  0  0  0  0  0  0  0  0
   -6.7634    1.1965    0.0000 C   0  0  0  0  0  0  0  0  0  0  0  0
   -6.5398    2.6797    0.0000 C   0  0  0  0  0  0  0  0  0  0  0  0
   -7.7125    3.6150    0.0000 C   0  0  0  0  0  0  0  0  0  0  0  0
   -7.4890    5.0982    0.0000 C   0  0  0  0  0  0  0  0  0  0  0  0
   -6.0927    5.6462    0.0000 O   0  0  0  0  0  0  0  0  0  0  0  0
   -8.6617    6.0334    0.0000 C   0  0  0  0  0  0  0  0  0  0  0  0
  -10.0580    5.4854    0.0000 C   0  0  0  0  0  0  0  0  0  0  0  0
  -10.2816    4.0022    0.0000 C   0  0  0  0  0  0  0  0  0  0  0  0
   -9.1088    3.0669    0.0000 C   0  0  0  0  0  0  0  0  0  0  0  0
   -9.3324    1.5837    0.0000 F   0  0  0  0  0  0  0  0  0  0  0  0
   -5.1435    3.2277    0.0000 C   0  0  0  0  0  0  0  0  0  0  0  0
   -4.9199    4.7110    0.0000 Cl  0  0  0  0  0  0  0  0  0  0  0  0
   -3.9707    2.2925    0.0000 C   0  0  0  0  0  0  0  0  0  0  0  0
   -4.0828    0.7967    0.0000 C   0  0  0  0  0  0  0  0  0  0  0  0
   -2.7314    3.1375    0.0000 O   0  0  0  0  0  0  0  0  0  0  0  0
   -1.2980    2.6953    0.0000 C   0  0  0  0  0  0  0  0  0  0  0  0
   -0.7500    1.2990    0.0000 C   0  0  0  0  0  0  0  0  0  0  0  0
    0.7500    1.2990    0.0000 C   0  0  0  0  0  0  0  0  0  0  0  0
  1  2  2  0
  2  3  1  0
  3  4  2  0
  3  5  1  0
  5  6  1  0
  6  7  1  0
  7  8  1  0
  8  9  1  0
  9 10  1  0
 10 11  2  0
 11 12  1  0
 12 13  2  0
 13 14  1  0
 14 15  2  0
 15 16  1  0
 16 17  2  0
 17 18  1  0
 17 19  1  0
 19 20  2  0
 20 21  1  0
 21 22  2  0
 22 23  1  0
 15 24  1  0
 24 25  1  0
 24 26  2  0
 26 27  1  0
 26 28  1  0
 28 29  1  0
 30 29  1  6
 30 31  1  0
 31  5  1  0
 30  8  1  0
 27  9  2  0
 27 13  1  0
 22 16  1  0
M  END
>  <molecule_chembl_id>  (248) 
CHEMBL4455938

>  <canonical_smiles>  (248) 
C=CC(=O)N1CCN2c3ncnc4cc(-c5c(O)cccc5F)c(Cl)c(c34)OC[C@@H]2C1

>  <pchembl_value_mean>  (248) 
7.01

>  <inchi>  (248) 
InChI=1S/C22H18ClFN4O3/c1-2-17(30)27-6-7-28-12(9-27)10-31-21-19-15(25-11-26-22(19)28)8-13(20(21)23)18-14(24)4-3-5-16(18)29/h2-5,8,11-12,29H,1,6-7,9-10H2/t12-/m0/s1

$$$$

     RDKit          2D

 45 50  0  0  0  0  0  0  0  0999 V2000
   10.5000   -5.1962    0.0000 C   0  0  0  0  0  0  0  0  0  0  0  0
    9.7500   -3.8971    0.0000 C   0  0  0  0  0  0  0  0  0  0  0  0
    8.2500   -3.8971    0.0000 C   0  0  0  0  0  0  0  0  0  0  0  0
    7.5000   -5.1962    0.0000 C   0  0  0  0  0  0  0  0  0  0  0  0
    6.7500   -6.4952    0.0000 N   0  0  0  0  0  0  0  0  0  0  0  0
    7.5000   -2.5981    0.0000 C   0  0  0  0  0  0  0  0  0  0  0  0
    8.2500   -1.2990    0.0000 O   0  0  0  0  0  0  0  0  0  0  0  0
    6.0000   -2.5981    0.0000 N   0  0  0  0  0  0  0  0  0  0  0  0
    5.2500   -3.8971    0.0000 C   0  0  0  0  0  0  0  0  0  0  0  0
    3.7500   -3.8971    0.0000 C   0  0  0  0  0  0  0  0  0  0  0  0
    3.0000   -2.5981    0.0000 N   0  0  0  0  0  0  0  0  0  0  0  0
    1.5000   -2.5981    0.0000 C   0  0  0  0  0  0  0  0  0  0  0  0
    0.7500   -3.8971    0.0000 N   0  0  0  0  0  0  0  0  0  0  0  0
   -0.7500   -3.8971    0.0000 C   0  0  0  0  0  0  0  0  0  0  0  0
   -1.5000   -5.1962    0.0000 O   0  0  0  0  0  0  0  0  0  0  0  0
   -3.0000   -5.1962    0.0000 C   0  0  0  0  0  0  0  0  0  0  0  0
   -3.7500   -6.4952    0.0000 C   0  0  0  0  0  0  0  0  0  0  0  0
   -3.1399   -7.8655    0.0000 C   0  0  0  0  0  0  0  0  0  0  0  0
   -4.2546   -8.8692    0.0000 C   0  0  0  0  0  0  0  0  0  0  0  0
   -5.5537   -8.1192    0.0000 C   0  0  0  0  0  0  0  0  0  0  0  0
   -5.2418   -6.6520    0.0000 N   0  0  0  0  0  0  0  0  0  0  0  0
   -6.2455   -5.5373    0.0000 C   0  0  0  0  0  0  0  0  0  0  0  0
   -1.5000   -2.5981    0.0000 N   0  0  0  0  0  0  0  0  0  0  0  0
   -0.7500   -1.2990    0.0000 C   0  0  0  0  0  0  0  0  0  0  0  0
    0.7500   -1.2990    0.0000 C   0  0  0  0  0  0  0  0  0  0  0  0
    1.5000    0.0000    0.0000 C   0  0  0  0  0  0  0  0  0  0  0  0
    0.7500    1.2990    0.0000 C   0  0  0  0  0  0  0  0  0  0  0  0
   -0.7500    1.2990    0.0000 N   0  0  0  0  0  0  0  0  0  0  0  0
   -1.5000    2.5981    0.0000 C   0  0  0  0  0  0  0  0  0  0  0  0
   -3.0000    2.5981    0.0000 C   0  0  0  0  0  0  0  0  0  0  0  0
   -3.7500    3.8971    0.0000 C   0  0  0  0  0  0  0  0  0  0  0  0
   -3.0000    5.1962    0.0000 C   0  0  0  0  0  0  0  0  0  0  0  0
   -1.5000    5.1962    0.0000 C   0  0  0  0  0  0  0  0  0  0  0  0
   -0.7500    6.4952    0.0000 C   0  0  0  0  0  0  0  0  0  0  0  0
    0.7500    6.4952    0.0000 C   0  0  0  0  0  0  0  0  0  0  0  0
    1.5000    5.1962    0.0000 C   0  0  0  0  0  0  0  0  0  0  0  0
    0.7500    3.8971    0.0000 C   0  0  0  0  0  0  0  0  0  0  0  0
    1.5000    2.5981    0.0000 Cl  0  0  0  0  0  0  0  0  0  0  0  0
   -0.7500    3.8971    0.0000 C   0  0  0  0  0  0  0  0  0  0  0  0
   -1.5000    0.0000    0.0000 C   0  0  0  0  0  0  0  0  0  0  0  0
    3.7500   -1.2990    0.0000 C   0  0  0  0  0  0  0  0  0  0  0  0
    5.2500   -1.2990    0.0000 C   0  0  0  0  0  0  0  0  0  0  0  0
    6.0000   -0.0000    0.0000 C   0  0  0  0  0  0  0  0  0  0  0  0
    5.2500    1.2990    0.0000 C   0  0  0  0  0  0  0  0  0  0  0  0
    4.5000    2.5981    0.0000 N   0  0  0  0  0  0  0  0  0  0  0  0
  1  2  1  0
  2  3  2  3
  3  4  1  0
  4  5  3  0
  3  6  1  0
  6  7  2  0
  6  8  1  0
  8  9  1  0
  9 10  1  0
 10 11  1  0
 11 12  1  0
 12 13  2  0
 13 14  1  0
 14 15  1  0
 15 16  1  0
 17 16  1  6
 17 18  1  0
 18 19  1  0
 19 20  1  0
 20 21  1  0
 21 22  1  0
 14 23  2  0
 23 24  1  0
 24 25  2  0
 25 26  1  0
 26 27  1  0
 27 28  1  0
 28 29  1  0
 29 30  2  0
 30 31  1  0
 31 32  2  0
 32 33  1  0
 33 34  2  0
 34 35  1  0
 35 36  2  0
 36 37  1  0
 37 38  1  0
 37 39  2  0
 28 40  1  0
 11 41  1  0
 41 42  1  0
 42 43  1  6
 43 44  1  0
 44 45  3  0
 42  8  1  0
 25 12  1  0
 39 29  1  0
 21 17  1  0
 40 24  1  0
 39 33  1  0
M  END
>  <molecule_chembl_id>  (249) 
CHEMBL5206068

>  <canonical_smiles>  (249) 
CC=C(C#N)C(=O)N1CCN(c2nc(OC[C@@H]3CCCN3C)nc3c2CCN(c2cccc4cccc(Cl)c24)C3)C[C@@H]1CC#N

>  <pchembl_value_mean>  (249) 
7.02

>  <inchi>  (249) 
InChI=1S/C34H37ClN8O2/c1-3-23(19-37)33(44)43-18-17-42(20-25(43)12-14-36)32-27-13-16-41(30-11-5-8-24-7-4-10-28(35)31(24)30)21-29(27)38-34(39-32)45-22-26-9-6-15-40(26)2/h3-5,7-8,10-11,25-26H,6,9,12-13,15-18,20-22H2,1-2H3/t25-,26-/m0/s1

$$$$

     RDKit          2D

146152  0  0  0  0  0  0  0  0999 V2000
    7.4592   15.3348    0.0000 C   0  0  0  0  0  0  0  0  0  0  0  0
    6.1077   14.6840    0.0000 C   0  0  0  0  0  0  0  0  0  0  0  0
    5.9956   13.1882    0.0000 C   0  0  0  0  0  0  0  0  0  0  0  0
    7.2350   12.3432    0.0000 C   0  0  0  0  0  0  0  0  0  0  0  0
    4.6442   12.5373    0.0000 C   0  0  0  0  0  0  0  0  0  0  0  0
    5.1713   11.1330    0.0000 N   0  0  0  0  0  0  0  0  0  0  0  0
    5.4391    9.6571    0.0000 C   0  0  0  0  0  0  0  0  0  0  0  0
    6.9331    9.7915    0.0000 O   0  0  0  0  0  0  0  0  0  0  0  0
    5.4391    8.1571    0.0000 C   0  0  0  0  0  0  0  0  0  0  0  0
    6.9331    8.0226    0.0000 C   0  0  0  0  0  0  0  0  0  0  0  0
    7.5636    6.6616    0.0000 C   0  0  0  0  0  0  0  0  0  0  0  0
    6.7002    5.4350    0.0000 C   0  0  0  0  0  0  0  0  0  0  0  0
    7.3307    4.0740    0.0000 C   0  0  0  0  0  0  0  0  0  0  0  0
    8.8247    3.9395    0.0000 C   0  0  0  0  0  0  0  0  0  0  0  0
    9.4552    2.5785    0.0000 C   0  0  0  0  0  0  0  0  0  0  0  0
    8.5918    1.3519    0.0000 C   0  0  0  0  0  0  0  0  0  0  0  0
    9.2223   -0.0091    0.0000 C   0  0  0  0  0  0  0  0  0  0  0  0
   10.7163   -0.1436    0.0000 C   0  0  0  0  0  0  0  0  0  0  0  0
   11.5797    1.0830    0.0000 C   0  0  0  0  0  0  0  0  0  0  0  0
   10.9492    2.4440    0.0000 C   0  0  0  0  0  0  0  0  0  0  0  0
    9.6881    5.1661    0.0000 C   0  0  0  0  0  0  0  0  0  0  0  0
    9.0576    6.5271    0.0000 C   0  0  0  0  0  0  0  0  0  0  0  0
    5.1713    6.6812    0.0000 N   0  0  0  0  0  0  0  0  0  0  0  0
    4.6442    5.2768    0.0000 C   0  0  0  0  0  0  0  0  0  0  0  0
    5.9956    4.6260    0.0000 O   0  0  0  0  0  0  0  0  0  0  0  0
    3.8748    3.9892    0.0000 C   0  0  0  0  0  0  0  0  0  0  0  0
    5.0884    3.1075    0.0000 C   0  0  0  0  0  0  0  0  0  0  0  0
    4.9316    1.6157    0.0000 C   0  0  0  0  0  0  0  0  0  0  0  0
    6.1451    0.7340    0.0000 C   0  0  0  0  0  0  0  0  0  0  0  0
    3.5613    1.0056    0.0000 C   0  0  0  0  0  0  0  0  0  0  0  0
    2.8879    2.8596    0.0000 N   0  0  0  0  0  0  0  0  0  0  0  0
    1.7152    1.9243    0.0000 C   0  0  0  0  0  0  0  0  0  0  0  0
    2.5415    0.6725    0.0000 O   0  0  0  0  0  0  0  0  0  0  0  0
    0.3943    1.2135    0.0000 C   0  0  0  0  0  0  0  0  0  0  0  0
    1.2760    0.0000    0.0000 C   0  0  0  0  0  0  0  0  0  0  0  0
    0.3943   -1.2135    0.0000 C   0  0  0  0  0  0  0  0  0  0  0  0
   -1.0323   -0.7500    0.0000 C   0  0  0  0  0  0  0  0  0  0  0  0
   -1.0323    0.7500    0.0000 N   0  0  0  0  0  0  0  0  0  0  0  0
   -2.5187    0.5487    0.0000 C   0  0  0  0  0  0  0  0  0  0  0  0
   -2.4514   -0.9498    0.0000 O   0  0  0  0  0  0  0  0  0  0  0  0
   -4.0172    0.6159    0.0000 C   0  0  0  0  0  0  0  0  0  0  0  0
   -4.2186   -0.8705    0.0000 N   0  0  0  0  0  0  0  0  0  0  0  0
   -5.6065   -1.4393    0.0000 C   0  0  0  0  0  0  0  0  0  0  0  0
   -6.7931   -0.5217    0.0000 O   0  0  0  0  0  0  0  0  0  0  0  0
   -5.8079   -2.9257    0.0000 C   0  0  0  0  0  0  0  0  0  0  0  0
   -7.1958   -3.4946    0.0000 C   0  0  0  0  0  0  0  0  0  0  0  0
   -7.3972   -4.9810    0.0000 C   0  0  0  0  0  0  0  0  0  0  0  0
   -8.7851   -5.5498    0.0000 C   0  0  0  0  0  0  0  0  0  0  0  0
   -8.9865   -7.0363    0.0000 N   0  0  0  0  0  0  0  0  0  0  0  0
  -10.3744   -7.6051    0.0000 C   0  0  0  0  0  0  0  0  0  0  0  0
  -11.5610   -6.6875    0.0000 N   0  0  0  0  0  0  0  0  0  0  0  0
  -10.5758   -9.0915    0.0000 N   0  0  0  0  0  0  0  0  0  0  0  0
   -4.6213   -3.8433    0.0000 N   0  0  0  0  0  0  0  0  0  0  0  0
   -4.8226   -5.3298    0.0000 C   0  0  0  0  0  0  0  0  0  0  0  0
   -6.2106   -5.8986    0.0000 O   0  0  0  0  0  0  0  0  0  0  0  0
   -3.6360   -6.2473    0.0000 C   0  0  0  0  0  0  0  0  0  0  0  0
   -3.8373   -7.7338    0.0000 C   0  0  0  0  0  0  0  0  0  0  0  0
   -2.6507   -8.6513    0.0000 C   0  0  0  0  0  0  0  0  0  0  0  0
   -2.8521  -10.1378    0.0000 C   0  0  0  0  0  0  0  0  0  0  0  0
   -1.6655  -11.0554    0.0000 N   0  0  0  0  0  0  0  0  0  0  0  0
   -1.8668  -12.5418    0.0000 C   0  0  0  0  0  0  0  0  0  0  0  0
   -3.2548  -13.1106    0.0000 N   0  0  0  0  0  0  0  0  0  0  0  0
   -0.6802  -13.4594    0.0000 N   0  0  0  0  0  0  0  0  0  0  0  0
   -2.2480   -5.6785    0.0000 N   0  0  0  0  0  0  0  0  0  0  0  0
   -1.0614   -6.5961    0.0000 C   0  0  0  0  0  0  0  0  0  0  0  0
    0.3265   -6.0272    0.0000 C   0  0  0  0  0  0  0  0  0  0  0  0
   -1.2628   -8.0825    0.0000 O   0  0  0  0  0  0  0  0  0  0  0  0
   -5.4796    0.9497    0.0000 C   0  0  0  0  0  0  0  0  0  0  0  0
   -6.8589    1.5393    0.0000 S   0  0  0  0  0  0  0  0  0  0  0  0
   -8.1107    2.3656    0.0000 S   0  0  0  0  0  0  0  0  0  0  0  0
   -9.1949    3.4022    0.0000 C   0  0  0  0  0  0  0  0  0  0  0  0
  -10.0766    4.6157    0.0000 C   0  0  0  0  0  0  0  0  0  0  0  0
  -11.3643    3.8464    0.0000 C   0  0  0  0  0  0  0  0  0  0  0  0
  -11.3418    2.3466    0.0000 O   0  0  0  0  0  0  0  0  0  0  0  0
  -12.6744    4.5769    0.0000 N   0  0  0  0  0  0  0  0  0  0  0  0
  -13.9621    3.8075    0.0000 C   0  0  0  0  0  0  0  0  0  0  0  0
  -15.2722    4.5380    0.0000 C   0  0  0  0  0  0  0  0  0  0  0  0
  -16.5599    3.7687    0.0000 C   0  0  0  0  0  0  0  0  0  0  0  0
  -17.8700    4.4991    0.0000 C   0  0  0  0  0  0  0  0  0  0  0  0
  -19.1576    3.7298    0.0000 N   0  0  0  0  0  0  0  0  0  0  0  0
  -20.4678    4.4603    0.0000 C   0  0  0  0  0  0  0  0  0  0  0  0
  -20.4902    5.9601    0.0000 N   0  0  0  0  0  0  0  0  0  0  0  0
  -21.7554    3.6909    0.0000 N   0  0  0  0  0  0  0  0  0  0  0  0
  -13.9396    2.3077    0.0000 C   0  0  0  0  0  0  0  0  0  0  0  0
  -12.6295    1.5772    0.0000 O   0  0  0  0  0  0  0  0  0  0  0  0
  -15.2273    1.5383    0.0000 N   0  0  0  0  0  0  0  0  0  0  0  0
  -15.2049    0.0385    0.0000 C   0  0  0  0  0  0  0  0  0  0  0  0
  -16.4925   -0.7308    0.0000 C   0  0  0  0  0  0  0  0  0  0  0  0
  -16.4701   -2.2307    0.0000 C   0  0  0  0  0  0  0  0  0  0  0  0
  -17.7578   -3.0000    0.0000 C   0  0  0  0  0  0  0  0  0  0  0  0
  -17.7353   -4.4999    0.0000 N   0  0  0  0  0  0  0  0  0  0  0  0
  -19.0230   -5.2692    0.0000 C   0  0  0  0  0  0  0  0  0  0  0  0
  -20.3331   -4.5387    0.0000 N   0  0  0  0  0  0  0  0  0  0  0  0
  -19.0006   -6.7690    0.0000 N   0  0  0  0  0  0  0  0  0  0  0  0
  -13.8948   -0.6920    0.0000 C   0  0  0  0  0  0  0  0  0  0  0  0
  -13.8723   -2.1918    0.0000 N   0  0  0  0  0  0  0  0  0  0  0  0
  -12.6071    0.0774    0.0000 O   0  0  0  0  0  0  0  0  0  0  0  0
  -10.7274    5.9672    0.0000 N   0  0  0  0  0  0  0  0  0  0  0  0
  -11.1265    7.4131    0.0000 C   0  0  0  0  0  0  0  0  0  0  0  0
  -12.6024    7.1453    0.0000 O   0  0  0  0  0  0  0  0  0  0  0  0
  -11.2610    8.9071    0.0000 C   0  0  0  0  0  0  0  0  0  0  0  0
  -12.7610    8.9071    0.0000 C   0  0  0  0  0  0  0  0  0  0  0  0
  -13.5110   10.2061    0.0000 C   0  0  0  0  0  0  0  0  0  0  0  0
  -13.5110    7.6081    0.0000 C   0  0  0  0  0  0  0  0  0  0  0  0
  -11.1265   10.4011    0.0000 N   0  0  0  0  0  0  0  0  0  0  0  0
  -10.7274   11.8470    0.0000 C   0  0  0  0  0  0  0  0  0  0  0  0
  -12.1318   12.3741    0.0000 O   0  0  0  0  0  0  0  0  0  0  0  0
  -10.0766   13.1984    0.0000 C   0  0  0  0  0  0  0  0  0  0  0  0
  -11.5032   13.6620    0.0000 C   0  0  0  0  0  0  0  0  0  0  0  0
  -11.5032   15.1620    0.0000 C   0  0  0  0  0  0  0  0  0  0  0  0
  -10.0766   15.6255    0.0000 C   0  0  0  0  0  0  0  0  0  0  0  0
   -9.6131   17.0521    0.0000 C   0  0  0  0  0  0  0  0  0  0  0  0
   -8.1459   17.3640    0.0000 C   0  0  0  0  0  0  0  0  0  0  0  0
   -7.6823   18.7905    0.0000 C   0  0  0  0  0  0  0  0  0  0  0  0
   -8.6860   19.9053    0.0000 C   0  0  0  0  0  0  0  0  0  0  0  0
  -10.1533   19.5934    0.0000 C   0  0  0  0  0  0  0  0  0  0  0  0
  -10.6168   18.1668    0.0000 C   0  0  0  0  0  0  0  0  0  0  0  0
   -9.1949   14.4120    0.0000 N   0  0  0  0  0  0  0  0  0  0  0  0
   -8.1107   15.4486    0.0000 C   0  0  0  0  0  0  0  0  0  0  0  0
   -8.7344   16.8128    0.0000 O   0  0  0  0  0  0  0  0  0  0  0  0
   -6.8589   16.2749    0.0000 C   0  0  0  0  0  0  0  0  0  0  0  0
   -7.5697   17.5958    0.0000 C   0  0  0  0  0  0  0  0  0  0  0  0
   -6.7812   18.8718    0.0000 C   0  0  0  0  0  0  0  0  0  0  0  0
   -5.2818   18.8270    0.0000 O   0  0  0  0  0  0  0  0  0  0  0  0
   -7.4920   20.1927    0.0000 O   0  0  0  0  0  0  0  0  0  0  0  0
   -5.4796   16.8645    0.0000 N   0  0  0  0  0  0  0  0  0  0  0  0
   -4.0172   17.1982    0.0000 C   0  0  0  0  0  0  0  0  0  0  0  0
   -4.2186   18.6847    0.0000 O   0  0  0  0  0  0  0  0  0  0  0  0
   -2.5187   17.2655    0.0000 C   0  0  0  0  0  0  0  0  0  0  0  0
   -2.4514   18.7640    0.0000 C   0  0  0  0  0  0  0  0  0  0  0  0
   -1.1200   19.4550    0.0000 C   0  0  0  0  0  0  0  0  0  0  0  0
    0.1440   18.6475    0.0000 C   0  0  0  0  0  0  0  0  0  0  0  0
    1.4754   19.3384    0.0000 C   0  0  0  0  0  0  0  0  0  0  0  0
    1.5427   20.8369    0.0000 C   0  0  0  0  0  0  0  0  0  0  0  0
    2.8741   21.5279    0.0000 O   0  0  0  0  0  0  0  0  0  0  0  0
    0.2786   21.6444    0.0000 C   0  0  0  0  0  0  0  0  0  0  0  0
   -1.0527   20.9535    0.0000 C   0  0  0  0  0  0  0  0  0  0  0  0
   -1.0323   17.0642    0.0000 N   0  0  0  0  0  0  0  0  0  0  0  0
    0.3943   16.6007    0.0000 C   0  0  0  0  0  0  0  0  0  0  0  0
    0.9838   17.9799    0.0000 O   0  0  0  0  0  0  0  0  0  0  0  0
    1.7152   15.8899    0.0000 C   0  0  0  0  0  0  0  0  0  0  0  0
    2.5415   17.1417    0.0000 C   0  0  0  0  0  0  0  0  0  0  0  0
    4.0389   17.0520    0.0000 O   0  0  0  0  0  0  0  0  0  0  0  0
    2.8879   14.9546    0.0000 N   0  0  0  0  0  0  0  0  0  0  0  0
    3.8748   13.8250    0.0000 C   0  0  0  0  0  0  0  0  0  0  0  0
    5.0884   14.7067    0.0000 O   0  0  0  0  0  0  0  0  0  0  0  0
  1  2  1  0
  2  3  1  0
  3  4  1  6
  3  5  1  0
  5  6  1  6
  6  7  1  0
  7  8  2  0
  7  9  1  0
  9 10  1  6
 10 11  1  0
 11 12  2  0
 12 13  1  0
 13 14  2  0
 14 15  1  0
 15 16  2  0
 16 17  1  0
 17 18  2  0
 18 19  1  0
 19 20  2  0
 14 21  1  0
 21 22  2  0
  9 23  1  0
 23 24  1  0
 24 25  2  0
 24 26  1  0
 26 27  1  6
 27 28  1  0
 28 29  1  0
 28 30  1  0
 26 31  1  0
 31 32  1  0
 32 33  2  0
 32 34  1  0
 34 35  1  6
 35 36  1  0
 36 37  1  0
 37 38  1  0
 38 39  1  0
 39 40  2  0
 39 41  1  0
 41 42  1  1
 42 43  1  0
 43 44  2  0
 43 45  1  0
 45 46  1  1
 46 47  1  0
 47 48  1  0
 48 49  1  0
 49 50  1  0
 50 51  2  0
 50 52  1  0
 45 53  1  0
 53 54  1  0
 54 55  2  0
 54 56  1  0
 56 57  1  1
 57 58  1  0
 58 59  1  0
 59 60  1  0
 60 61  1  0
 61 62  2  0
 61 63  1  0
 56 64  1  0
 64 65  1  0
 65 66  1  0
 65 67  2  0
 41 68  1  0
 68 69  1  0
 69 70  1  0
 70 71  1  0
 71 72  1  0
 72 73  1  1
 73 74  2  0
 73 75  1  0
 75 76  1  0
 76 77  1  6
 77 78  1  0
 78 79  1  0
 79 80  1  0
 80 81  1  0
 81 82  2  0
 81 83  1  0
 76 84  1  0
 84 85  2  0
 84 86  1  0
 86 87  1  0
 87 88  1  6
 88 89  1  0
 89 90  1  0
 90 91  1  0
 91 92  1  0
 92 93  2  0
 92 94  1  0
 87 95  1  0
 95 96  1  0
 95 97  2  0
 72 98  1  0
 98 99  1  0
 99100  2  0
 99101  1  0
101102  1  6
102103  1  0
102104  1  0
101105  1  0
105106  1  0
106107  2  0
106108  1  0
108109  1  6
109110  1  0
110111  1  0
111112  1  1
112113  2  0
113114  1  0
114115  2  0
115116  1  0
116117  2  0
111118  1  0
118119  1  0
119120  2  0
119121  1  0
121122  1  6
122123  1  0
123124  2  0
123125  1  0
121126  1  0
126127  1  0
127128  2  0
127129  1  0
129130  1  6
130131  1  0
131132  2  0
132133  1  0
133134  2  0
134135  1  0
134136  1  0
136137  2  0
129138  1  0
138139  1  0
139140  2  0
139141  1  0
141142  1  6
142143  1  0
141144  1  0
144145  1  0
145146  2  0
145  5  1  0
 22 11  1  0
 38 34  1  0
118108  1  0
137131  1  0
 20 15  1  0
117112  1  0
M  END
>  <molecule_chembl_id>  (250) 
CHEMBL5193444

>  <canonical_smiles>  (250) 
CC[C@H](C)[C@@H]1NC(=O)[C@H](Cc2ccc(-c3ccccc3)cc2)NC(=O)[C@H](CC(C)C)NC(=O)[C@@H]2CCCN2C(=O)[C@@H](NC(=O)[C@H](CCCNC(=N)N)NC(=O)[C@H](CCCNC(=N)N)NC(C)=O)CSSC[C@@H](C(=O)N[C@@H](CCCNC(=N)N)C(=O)N[C@@H](CCCNC(=N)N)C(N)=O)NC(=O)[C@H](C(C)C)NC(=O)[C@@H]2CC[C@@H](c3ccccc3)N2C(=O)[C@H](CC(=O)O)NC(=O)[C@H](Cc2ccc(O)cc2)NC(=O)[C@H](CO)NC1=O

>  <pchembl_value_mean>  (250) 
7.03

>  <inchi>  (250) 
InChI=1S/C96H142N28O20S2/c1-8-53(6)77-90(142)118-69(48-125)85(137)115-66(46-56-31-35-60(127)36-32-56)83(135)117-68(47-75(128)129)92(144)124-72(59-22-13-10-14-23-59)37-38-74(124)88(140)121-76(52(4)5)89(141)119-70(86(138)113-63(26-17-41-108-95(102)103)80(132)111-61(78(97)130)24-15-39-106-93(98)99)49-145-146-50-71(120-81(133)64(27-18-42-109-96(104)105)112-79(131)62(110-54(7)126)25-16-40-107-94(100)101)91(143)123-43-19-28-73(123)87(139)116-65(44-51(2)3)82(134)114-67(84(136)122-77)45-55-29-33-58(34-30-55)57-20-11-9-12-21-57/h9-14,20-23,29-36,51-53,61-74,76-77,125,127H,8,15-19,24-28,37-50H2,1-7H3,(H2,97,130)(H,110,126)(H,111,132)(H,112,131)(H,113,138)(H,114,134)(H,115,137)(H,116,139)(H,117,135)(H,118,142)(H,119,141)(H,120,133)(H,121,140)(H,122,136)(H,128,129)(H4,98,99,106)(H4,100,101,107)(H4,102,103,108)(H4,104,105,109)/t53-,61-,62-,63-,64-,65-,66-,67-,68-,69-,70-,71-,72-,73-,74-,76-,77-/m0/s1

$$$$

     RDKit          2D

 39 45  0  0  0  0  0  0  0  0999 V2000
  -12.1677   -7.0526    0.0000 C   0  0  0  0  0  0  0  0  0  0  0  0
  -11.2860   -5.8390    0.0000 C   0  0  0  0  0  0  0  0  0  0  0  0
   -9.7942   -5.9958    0.0000 C   0  0  0  0  0  0  0  0  0  0  0  0
   -9.1841   -7.3662    0.0000 O   0  0  0  0  0  0  0  0  0  0  0  0
   -8.9126   -4.7823    0.0000 N   0  0  0  0  0  0  0  0  0  0  0  0
   -9.1472   -3.3008    0.0000 C   0  0  0  0  0  0  0  0  0  0  0  0
   -7.6657   -3.0661    0.0000 C   0  0  0  0  0  0  0  0  0  0  0  0
   -6.1841   -2.8315    0.0000 C   0  0  0  0  0  0  0  0  0  0  0  0
   -6.4188   -1.3499    0.0000 C   0  0  0  0  0  0  0  0  0  0  0  0
   -5.5371   -0.1364    0.0000 N   0  0  0  0  0  0  0  0  0  0  0  0
   -6.0006    1.2902    0.0000 N   0  0  0  0  0  0  0  0  0  0  0  0
   -4.7871    2.1718    0.0000 C   0  0  0  0  0  0  0  0  0  0  0  0
   -4.7871    3.6718    0.0000 C   0  0  0  0  0  0  0  0  0  0  0  0
   -3.4881    4.4218    0.0000 C   0  0  0  0  0  0  0  0  0  0  0  0
   -3.4881    5.9218    0.0000 C   0  0  0  0  0  0  0  0  0  0  0  0
   -4.7871    6.6718    0.0000 C   0  0  0  0  0  0  0  0  0  0  0  0
   -4.7871    8.1718    0.0000 N   0  0  0  0  0  0  0  0  0  0  0  0
   -6.0006    9.0535    0.0000 C   0  0  0  0  0  0  0  0  0  0  0  0
   -5.5371   10.4801    0.0000 N   0  0  0  0  0  0  0  0  0  0  0  0
   -4.0371   10.4801    0.0000 C   0  0  0  0  0  0  0  0  0  0  0  0
   -3.5736    9.0535    0.0000 N   0  0  0  0  0  0  0  0  0  0  0  0
   -6.0862    5.9218    0.0000 C   0  0  0  0  0  0  0  0  0  0  0  0
   -6.0862    4.4218    0.0000 C   0  0  0  0  0  0  0  0  0  0  0  0
   -3.5736    1.2902    0.0000 C   0  0  0  0  0  0  0  0  0  0  0  0
   -2.1470    1.7537    0.0000 C   0  0  0  0  0  0  0  0  0  0  0  0
   -1.0323    0.7500    0.0000 C   0  0  0  0  0  0  0  0  0  0  0  0
   -1.3442   -0.7172    0.0000 Cl  0  0  0  0  0  0  0  0  0  0  0  0
    0.3943    1.2135    0.0000 C   0  0  0  0  0  0  0  0  0  0  0  0
    1.5090    0.2098    0.0000 C   0  0  0  0  0  0  0  0  0  0  0  0
    0.7062    2.6807    0.0000 C   0  0  0  0  0  0  0  0  0  0  0  0
   -0.4086    3.6844    0.0000 C   0  0  0  0  0  0  0  0  0  0  0  0
   -0.4086    5.1844    0.0000 N   0  0  0  0  0  0  0  0  0  0  0  0
   -1.8351    5.6480    0.0000 N   0  0  0  0  0  0  0  0  0  0  0  0
   -2.7168    4.4344    0.0000 C   0  0  0  0  0  0  0  0  0  0  0  0
   -1.8351    3.2209    0.0000 C   0  0  0  0  0  0  0  0  0  0  0  0
   -4.0371   -0.1364    0.0000 C   0  0  0  0  0  0  0  0  0  0  0  0
   -3.1554   -1.3499    0.0000 C   0  0  0  0  0  0  0  0  0  0  0  0
   -7.9003   -1.5846    0.0000 C   0  0  0  0  0  0  0  0  0  0  0  0
   -7.4310   -4.5477    0.0000 C   0  0  0  0  0  0  0  0  0  0  0  0
  1  2  2  0
  2  3  1  0
  3  4  2  0
  3  5  1  0
  5  6  1  0
  6  7  1  0
  7  8  1  0
  8  9  1  0
  9 10  1  0
 10 11  1  0
 11 12  2  0
 12 13  1  0
 13 14  2  0
 14 15  1  0
 15 16  2  0
 16 17  1  0
 17 18  1  0
 18 19  2  0
 19 20  1  0
 20 21  2  0
 16 22  1  0
 22 23  2  0
 12 24  1  0
 24 25  1  0
 25 26  2  0
 26 27  1  0
 26 28  1  0
 28 29  1  0
 28 30  2  0
 30 31  1  0
 31 32  1  0
 32 33  1  0
 33 34  2  0
 34 35  1  0
 24 36  2  0
 36 37  1  0
  9 38  1  0
  7 39  1  0
 39  5  1  0
 38  7  1  0
 36 10  1  0
 23 13  1  0
 35 25  1  0
 21 17  1  0
 35 31  2  0
M  END
>  <molecule_chembl_id>  (251) 
CHEMBL5076213

>  <canonical_smiles>  (251) 
C=CC(=O)N1CC2(CC(n3nc(-c4ccc(-n5cncn5)cc4)c(-c4c(Cl)c(C)cc5[nH]ncc45)c3C)C2)C1

>  <pchembl_value_mean>  (251) 
7.03

>  <inchi>  (251) 
InChI=1S/C29H27ClN8O/c1-4-24(39)36-13-29(14-36)10-21(11-29)38-18(3)25(26-22-12-32-34-23(22)9-17(2)27(26)30)28(35-38)19-5-7-20(8-6-19)37-16-31-15-33-37/h4-9,12,15-16,21H,1,10-11,13-14H2,2-3H3,(H,32,34)

$$$$

     RDKit          2D

 35 38  0  0  0  0  0  0  0  0999 V2000
   -3.7500   -1.2990    0.0000 C   0  0  0  0  0  0  0  0  0  0  0  0
   -3.0000   -2.5981    0.0000 C   0  0  0  0  0  0  0  0  0  0  0  0
   -1.5000   -2.5981    0.0000 N   0  0  0  0  0  0  0  0  0  0  0  0
   -0.7500   -3.8971    0.0000 C   0  0  0  0  0  0  0  0  0  0  0  0
   -1.5000   -5.1962    0.0000 O   0  0  0  0  0  0  0  0  0  0  0  0
    0.7500   -3.8971    0.0000 C   0  0  0  0  0  0  0  0  0  0  0  0
    1.5000   -5.1962    0.0000 C   0  0  0  0  0  0  0  0  0  0  0  0
    0.7500   -6.4952    0.0000 C   0  0  0  0  0  0  0  0  0  0  0  0
    1.5000   -7.7942    0.0000 C   0  0  0  0  0  0  0  0  0  0  0  0
    3.0000   -7.7942    0.0000 C   0  0  0  0  0  0  0  0  0  0  0  0
    3.7500   -9.0933    0.0000 F   0  0  0  0  0  0  0  0  0  0  0  0
    3.7500   -6.4952    0.0000 C   0  0  0  0  0  0  0  0  0  0  0  0
    5.2500   -6.4952    0.0000 N   0  0  0  0  0  0  0  0  0  0  0  0
    6.0000   -5.1962    0.0000 C   0  0  0  0  0  0  0  0  0  0  0  0
    5.2500   -3.8971    0.0000 O   0  0  0  0  0  0  0  0  0  0  0  0
    7.5000   -5.1962    0.0000 N   0  0  0  0  0  0  0  0  0  0  0  0
    8.2500   -3.8971    0.0000 C   0  0  0  0  0  0  0  0  0  0  0  0
    7.6399   -2.5268    0.0000 C   0  0  0  0  0  0  0  0  0  0  0  0
    8.7546   -1.5231    0.0000 C   0  0  0  0  0  0  0  0  0  0  0  0
    8.5978   -0.0313    0.0000 C   0  0  0  0  0  0  0  0  0  0  0  0
   10.0896    0.1255    0.0000 C   0  0  0  0  0  0  0  0  0  0  0  0
    7.1060   -0.1881    0.0000 C   0  0  0  0  0  0  0  0  0  0  0  0
    8.4410    1.4605    0.0000 C   0  0  0  0  0  0  0  0  0  0  0  0
   10.0537   -2.2731    0.0000 N   0  0  0  0  0  0  0  0  0  0  0  0
    9.7418   -3.7403    0.0000 O   0  0  0  0  0  0  0  0  0  0  0  0
    3.0000   -5.1962    0.0000 C   0  0  0  0  0  0  0  0  0  0  0  0
    1.5000   -2.5981    0.0000 C   0  0  0  0  0  0  0  0  0  0  0  0
    0.7500   -1.2990    0.0000 C   0  0  0  0  0  0  0  0  0  0  0  0
    1.5000    0.0000    0.0000 C   0  0  0  0  0  0  0  0  0  0  0  0
    0.7500    1.2990    0.0000 N   0  0  0  0  0  0  0  0  0  0  0  0
   -0.7500    1.2990    0.0000 C   0  0  0  0  0  0  0  0  0  0  0  0
   -1.5000    2.5981    0.0000 N   0  0  0  0  0  0  0  0  0  0  0  0
   -0.7500    3.8971    0.0000 C   0  0  0  0  0  0  0  0  0  0  0  0
   -1.5000    0.0000    0.0000 C   0  0  0  0  0  0  0  0  0  0  0  0
   -0.7500   -1.2990    0.0000 C   0  0  0  0  0  0  0  0  0  0  0  0
  1  2  1  0
  2  3  1  0
  3  4  1  0
  4  5  2  0
  4  6  1  0
  6  7  1  0
  7  8  2  0
  8  9  1  0
  9 10  2  0
 10 11  1  0
 10 12  1  0
 12 13  1  0
 13 14  1  0
 14 15  2  0
 14 16  1  0
 16 17  1  0
 17 18  2  0
 18 19  1  0
 19 20  1  0
 20 21  1  0
 20 22  1  0
 20 23  1  0
 19 24  2  0
 24 25  1  0
 12 26  2  0
  6 27  2  0
 27 28  1  0
 28 29  2  0
 29 30  1  0
 30 31  2  0
 31 32  1  0
 32 33  1  0
 31 34  1  0
 34 35  2  0
 35  3  1  0
 26  7  1  0
 35 28  1  0
 25 17  1  0
M  END
>  <molecule_chembl_id>  (252) 
CHEMBL3577115

>  <canonical_smiles>  (252) 
CCn1c(=O)c(-c2ccc(F)c(NC(=O)Nc3cc(C(C)(C)C)no3)c2)cc2cnc(NC)cc21

>  <pchembl_value_mean>  (252) 
7.04

>  <inchi>  (252) 
InChI=1S/C25H27FN6O3/c1-6-32-19-11-21(27-5)28-13-15(19)9-16(23(32)33)14-7-8-17(26)18(10-14)29-24(34)30-22-12-20(31-35-22)25(2,3)4/h7-13H,6H2,1-5H3,(H,27,28)(H2,29,30,34)

$$$$

     RDKit          2D

 40 45  0  0  0  0  0  0  0  0999 V2000
   -0.0000  -15.5885    0.0000 C   0  0  0  0  0  0  0  0  0  0  0  0
   -0.7500  -14.2894    0.0000 C   0  0  0  0  0  0  0  0  0  0  0  0
   -0.0000  -12.9904    0.0000 C   0  0  0  0  0  0  0  0  0  0  0  0
    1.5000  -12.9904    0.0000 O   0  0  0  0  0  0  0  0  0  0  0  0
   -0.7500  -11.6913    0.0000 N   0  0  0  0  0  0  0  0  0  0  0  0
   -2.2500  -11.6913    0.0000 C   0  0  0  0  0  0  0  0  0  0  0  0
   -3.0000  -10.3923    0.0000 C   0  0  0  0  0  0  0  0  0  0  0  0
   -2.2500   -9.0933    0.0000 N   0  0  0  0  0  0  0  0  0  0  0  0
   -3.0000   -7.7942    0.0000 C   0  0  0  0  0  0  0  0  0  0  0  0
   -4.5000   -7.7942    0.0000 N   0  0  0  0  0  0  0  0  0  0  0  0
   -5.2500   -6.4952    0.0000 C   0  0  0  0  0  0  0  0  0  0  0  0
   -6.7500   -6.4952    0.0000 O   0  0  0  0  0  0  0  0  0  0  0  0
   -7.5000   -5.1962    0.0000 C   0  0  0  0  0  0  0  0  0  0  0  0
   -9.0000   -5.1962    0.0000 C   0  0  0  0  0  0  0  0  0  0  0  0
   -9.8817   -6.4097    0.0000 C   0  0  0  0  0  0  0  0  0  0  0  0
  -11.3083   -5.9462    0.0000 C   0  0  0  0  0  0  0  0  0  0  0  0
  -11.3083   -4.4462    0.0000 C   0  0  0  0  0  0  0  0  0  0  0  0
   -9.8817   -3.9826    0.0000 N   0  0  0  0  0  0  0  0  0  0  0  0
   -9.4182   -2.5560    0.0000 C   0  0  0  0  0  0  0  0  0  0  0  0
   -4.5000   -5.1962    0.0000 N   0  0  0  0  0  0  0  0  0  0  0  0
   -3.0000   -5.1962    0.0000 C   0  0  0  0  0  0  0  0  0  0  0  0
   -2.2500   -6.4952    0.0000 C   0  0  0  0  0  0  0  0  0  0  0  0
   -0.7500   -6.4952    0.0000 C   0  0  0  0  0  0  0  0  0  0  0  0
   -0.0000   -5.1962    0.0000 C   0  0  0  0  0  0  0  0  0  0  0  0
   -0.7500   -3.8971    0.0000 C   0  0  0  0  0  0  0  0  0  0  0  0
    0.7500   -3.8971    0.0000 C   0  0  0  0  0  0  0  0  0  0  0  0
    1.5000   -2.5981    0.0000 C   0  0  0  0  0  0  0  0  0  0  0  0
    0.7500   -1.2990    0.0000 C   0  0  0  0  0  0  0  0  0  0  0  0
    1.5000    0.0000    0.0000 C   0  0  0  0  0  0  0  0  0  0  0  0
    0.7500    1.2990    0.0000 C   0  0  0  0  0  0  0  0  0  0  0  0
   -0.7500    1.2990    0.0000 C   0  0  0  0  0  0  0  0  0  0  0  0
   -1.5000    0.0000    0.0000 C   0  0  0  0  0  0  0  0  0  0  0  0
   -0.7500   -1.2990    0.0000 C   0  0  0  0  0  0  0  0  0  0  0  0
   -1.5000   -2.5981    0.0000 C   0  0  0  0  0  0  0  0  0  0  0  0
   -2.2500   -3.8971    0.0000 C   0  0  0  0  0  0  0  0  0  0  0  0
   -0.7500   -9.0933    0.0000 C   0  0  0  0  0  0  0  0  0  0  0  0
   -0.0000  -10.3923    0.0000 C   0  0  0  0  0  0  0  0  0  0  0  0
    1.5000  -10.3923    0.0000 C   0  0  0  0  0  0  0  0  0  0  0  0
    2.2500   -9.0933    0.0000 C   0  0  0  0  0  0  0  0  0  0  0  0
    3.0000   -7.7942    0.0000 N   0  0  0  0  0  0  0  0  0  0  0  0
  1  2  2  0
  2  3  1  0
  3  4  2  0
  3  5  1  0
  5  6  1  0
  6  7  1  0
  7  8  1  0
  8  9  1  0
  9 10  2  0
 10 11  1  0
 11 12  1  0
 12 13  1  0
 14 13  1  6
 14 15  1  0
 15 16  1  0
 16 17  1  0
 17 18  1  0
 18 19  1  0
 11 20  2  0
 20 21  1  0
 21 22  2  0
 22 23  1  0
 23 24  1  0
 25 24  1  6
 25 26  1  0
 26 27  1  0
 27 28  1  0
 28 29  2  0
 29 30  1  0
 30 31  2  0
 31 32  1  0
 32 33  2  0
 33 34  1  0
 25 35  1  0
  8 36  1  0
 36 37  1  0
 37 38  1  6
 38 39  1  0
 39 40  3  0
 37  5  1  0
 22  9  1  0
 34 25  1  0
 18 14  1  0
 35 21  1  0
 33 28  1  0
M  END
>  <molecule_chembl_id>  (253) 
CHEMBL5073085

>  <canonical_smiles>  (253) 
C=CC(=O)N1CCN(c2nc(OC[C@@H]3CCCN3C)nc3c2CC[C@]2(CCc4ccccc4C2)C3)C[C@@H]1CC#N

>  <pchembl_value_mean>  (253) 
7.05

>  <inchi>  (253) 
InChI=1S/C32H40N6O2/c1-3-29(39)38-18-17-37(21-25(38)12-15-33)30-27-11-14-32(13-10-23-7-4-5-8-24(23)19-32)20-28(27)34-31(35-30)40-22-26-9-6-16-36(26)2/h3-5,7-8,25-26H,1,6,9-14,16-22H2,2H3/t25-,26-,32-/m0/s1

$$$$

     RDKit          2D

 29 32  0  0  0  0  0  0  0  0999 V2000
    5.2500   -1.2990    0.0000 C   0  0  0  0  0  0  0  0  0  0  0  0
    3.7500   -1.2990    0.0000 C   0  0  0  0  0  0  0  0  0  0  0  0
    3.0000    0.0000    0.0000 C   0  0  0  0  0  0  0  0  0  0  0  0
    3.7500    1.2990    0.0000 O   0  0  0  0  0  0  0  0  0  0  0  0
    1.5000    0.0000    0.0000 N   0  0  0  0  0  0  0  0  0  0  0  0
    0.7500   -1.2990    0.0000 C   0  0  0  0  0  0  0  0  0  0  0  0
   -0.7500   -1.2990    0.0000 C   0  0  0  0  0  0  0  0  0  0  0  0
   -1.5000    0.0000    0.0000 N   0  0  0  0  0  0  0  0  0  0  0  0
   -2.9832   -0.2236    0.0000 C   0  0  0  0  0  0  0  0  0  0  0  0
   -4.0828    0.7967    0.0000 C   0  0  0  0  0  0  0  0  0  0  0  0
   -5.4343    0.1459    0.0000 C   0  0  0  0  0  0  0  0  0  0  0  0
   -6.6736    0.9909    0.0000 C   0  0  0  0  0  0  0  0  0  0  0  0
   -8.0251    0.3400    0.0000 F   0  0  0  0  0  0  0  0  0  0  0  0
   -6.5615    2.4867    0.0000 C   0  0  0  0  0  0  0  0  0  0  0  0
   -7.8009    3.3316    0.0000 C   0  0  0  0  0  0  0  0  0  0  0  0
   -7.6888    4.8274    0.0000 C   0  0  0  0  0  0  0  0  0  0  0  0
   -6.3374    5.4783    0.0000 C   0  0  0  0  0  0  0  0  0  0  0  0
   -8.9282    5.6724    0.0000 C   0  0  0  0  0  0  0  0  0  0  0  0
  -10.2796    5.0216    0.0000 C   0  0  0  0  0  0  0  0  0  0  0  0
  -10.3917    3.5258    0.0000 C   0  0  0  0  0  0  0  0  0  0  0  0
   -9.1524    2.6808    0.0000 C   0  0  0  0  0  0  0  0  0  0  0  0
   -9.2644    1.1850    0.0000 O   0  0  0  0  0  0  0  0  0  0  0  0
   -5.2101    3.1375    0.0000 C   0  0  0  0  0  0  0  0  0  0  0  0
   -5.0980    4.6333    0.0000 F   0  0  0  0  0  0  0  0  0  0  0  0
   -3.9707    2.2925    0.0000 C   0  0  0  0  0  0  0  0  0  0  0  0
   -2.7314    3.1375    0.0000 O   0  0  0  0  0  0  0  0  0  0  0  0
   -1.2980    2.6953    0.0000 C   0  0  0  0  0  0  0  0  0  0  0  0
   -0.7500    1.2990    0.0000 C   0  0  0  0  0  0  0  0  0  0  0  0
    0.7500    1.2990    0.0000 C   0  0  0  0  0  0  0  0  0  0  0  0
  1  2  2  0
  2  3  1  0
  3  4  2  0
  3  5  1  0
  5  6  1  0
  6  7  1  0
  7  8  1  0
  8  9  1  0
  9 10  1  0
 10 11  2  0
 11 12  1  0
 12 13  1  0
 12 14  2  0
 14 15  1  0
 15 16  2  0
 16 17  1  0
 16 18  1  0
 18 19  2  0
 19 20  1  0
 20 21  2  0
 21 22  1  0
 14 23  1  0
 23 24  1  0
 23 25  2  0
 25 26  1  0
 26 27  1  0
 28 27  1  1
 28 29  1  0
 29  5  1  0
 28  8  1  0
 25 10  1  0
 21 15  1  0
M  END
>  <molecule_chembl_id>  (254) 
CHEMBL5397175

>  <canonical_smiles>  (254) 
C=CC(=O)N1CCN2Cc3cc(F)c(-c4c(C)cccc4O)c(F)c3OC[C@H]2C1

>  <pchembl_value_mean>  (254) 
7.05

>  <inchi>  (254) 
InChI=1S/C22H22F2N2O3/c1-3-18(28)26-8-7-25-10-14-9-16(23)20(19-13(2)5-4-6-17(19)27)21(24)22(14)29-12-15(25)11-26/h3-6,9,15,27H,1,7-8,10-12H2,2H3/t15-/m1/s1

$$$$

     RDKit          2D

 41 45  0  0  0  0  0  0  0  0999 V2000
   -9.7500   -1.2990    0.0000 C   0  0  0  0  0  0  0  0  0  0  0  0
   -8.2500   -1.2990    0.0000 C   0  0  0  0  0  0  0  0  0  0  0  0
   -7.5000   -2.5981    0.0000 C   0  0  0  0  0  0  0  0  0  0  0  0
   -8.2500   -3.8971    0.0000 O   0  0  0  0  0  0  0  0  0  0  0  0
   -6.0000   -2.5981    0.0000 N   0  0  0  0  0  0  0  0  0  0  0  0
   -5.2500   -1.2990    0.0000 C   0  0  0  0  0  0  0  0  0  0  0  0
   -3.7500   -1.2990    0.0000 C   0  0  0  0  0  0  0  0  0  0  0  0
   -3.0000   -2.5981    0.0000 N   0  0  0  0  0  0  0  0  0  0  0  0
   -1.5000   -2.5981    0.0000 C   0  0  0  0  0  0  0  0  0  0  0  0
   -0.7500   -3.8971    0.0000 N   0  0  0  0  0  0  0  0  0  0  0  0
    0.7500   -3.8971    0.0000 C   0  0  0  0  0  0  0  0  0  0  0  0
    1.1772   -4.9037    0.0000 O   0  0  0  0  0  0  0  0  0  0  0  0
    1.5000   -2.5981    0.0000 N   0  0  0  0  0  0  0  0  0  0  0  0
    3.0000   -2.5981    0.0000 C   0  0  0  0  0  0  0  0  0  0  0  0
    3.7500   -1.2990    0.0000 C   0  0  0  0  0  0  0  0  0  0  0  0
    3.0000   -0.0000    0.0000 C   0  0  0  0  0  0  0  0  0  0  0  0
    5.2500   -1.2990    0.0000 C   0  0  0  0  0  0  0  0  0  0  0  0
    6.0000   -2.5981    0.0000 C   0  0  0  0  0  0  0  0  0  0  0  0
    5.2500   -3.8971    0.0000 C   0  0  0  0  0  0  0  0  0  0  0  0
    3.7500   -3.8971    0.0000 C   0  0  0  0  0  0  0  0  0  0  0  0
    3.0000   -5.1962    0.0000 C   0  0  0  0  0  0  0  0  0  0  0  0
    3.7500   -6.4952    0.0000 C   0  0  0  0  0  0  0  0  0  0  0  0
    1.9147   -5.3294    0.0000 C   0  0  0  0  0  0  0  0  0  0  0  0
    0.7500   -1.2990    0.0000 C   0  0  0  0  0  0  0  0  0  0  0  0
    1.5000    0.0000    0.0000 N   0  0  0  0  0  0  0  0  0  0  0  0
    0.7500    1.2990    0.0000 C   0  0  0  0  0  0  0  0  0  0  0  0
    1.5000    2.5981    0.0000 C   0  0  0  0  0  0  0  0  0  0  0  0
    3.0000    2.5981    0.0000 C   0  0  0  0  0  0  0  0  0  0  0  0
    3.7500    1.2990    0.0000 O   0  0  0  0  0  0  0  0  0  0  0  0
    3.7500    3.8971    0.0000 C   0  0  0  0  0  0  0  0  0  0  0  0
    3.0000    5.1962    0.0000 C   0  0  0  0  0  0  0  0  0  0  0  0
    1.5000    5.1962    0.0000 C   0  0  0  0  0  0  0  0  0  0  0  0
    0.7500    3.8971    0.0000 C   0  0  0  0  0  0  0  0  0  0  0  0
   -0.7500    3.8971    0.0000 F   0  0  0  0  0  0  0  0  0  0  0  0
   -0.7500    1.2990    0.0000 C   0  0  0  0  0  0  0  0  0  0  0  0
   -1.5000    2.5981    0.0000 F   0  0  0  0  0  0  0  0  0  0  0  0
   -1.5000    0.0000    0.0000 C   0  0  0  0  0  0  0  0  0  0  0  0
   -0.7500   -1.2990    0.0000 C   0  0  0  0  0  0  0  0  0  0  0  0
   -3.7500   -3.8971    0.0000 C   0  0  0  0  0  0  0  0  0  0  0  0
   -3.0000   -5.1962    0.0000 C   0  0  0  0  0  0  0  0  0  0  0  0
   -5.2500   -3.8971    0.0000 C   0  0  0  0  0  0  0  0  0  0  0  0
  1  2  2  0
  2  3  1  0
  3  4  2  0
  3  5  1  0
  5  6  1  0
  6  7  1  0
  7  8  1  0
  8  9  1  0
  9 10  2  0
 10 11  1  0
 11 12  2  0
 11 13  1  0
 13 14  1  0
 14 15  2  0
 15 16  1  0
 15 17  1  0
 17 18  2  0
 18 19  1  0
 19 20  2  0
 20 21  1  0
 21 22  1  0
 21 23  1  0
 13 24  1  0
 24 25  2  0
 25 26  1  0
 26 27  1  0
 27 28  2  0
 28 29  1  0
 28 30  1  0
 30 31  2  0
 31 32  1  0
 32 33  2  0
 33 34  1  0
 26 35  2  0
 35 36  1  0
 35 37  1  0
 37 38  2  0
  8 39  1  0
 39 40  1  1
 39 41  1  0
 41  5  1  0
 38  9  1  0
 20 14  1  0
 38 24  1  0
 33 27  1  0
M  END
>  <molecule_chembl_id>  (255) 
CHEMBL4452622

>  <canonical_smiles>  (255) 
C=CC(=O)N1CCN(c2nc(=O)n(-c3c(C)cccc3C(C)C)c3nc(-c4c(O)cccc4F)c(F)cc23)[C@@H](C)C1

>  <pchembl_value_mean>  (255) 
7.05

>  <inchi>  (255) 
InChI=1S/C31H31F2N5O3/c1-6-25(40)36-13-14-37(19(5)16-36)29-21-15-23(33)27(26-22(32)11-8-12-24(26)39)34-30(21)38(31(41)35-29)28-18(4)9-7-10-20(28)17(2)3/h6-12,15,17,19,39H,1,13-14,16H2,2-5H3/t19-/m0/s1

$$$$

     RDKit          2D

 33 37  0  0  0  0  0  0  0  0999 V2000
   -9.8163    0.9718    0.0000 C   0  0  0  0  0  0  0  0  0  0  0  0
   -8.3829    0.5297    0.0000 C   0  0  0  0  0  0  0  0  0  0  0  0
   -7.2833    1.5500    0.0000 C   0  0  0  0  0  0  0  0  0  0  0  0
   -7.6171    3.0124    0.0000 O   0  0  0  0  0  0  0  0  0  0  0  0
   -5.8500    1.1078    0.0000 N   0  0  0  0  0  0  0  0  0  0  0  0
   -5.5162   -0.3546    0.0000 C   0  0  0  0  0  0  0  0  0  0  0  0
   -4.0828   -0.7967    0.0000 C   0  0  0  0  0  0  0  0  0  0  0  0
   -3.9707   -2.2925    0.0000 C   0  0  0  0  0  0  0  0  0  0  0  0
   -2.7314   -3.1375    0.0000 O   0  0  0  0  0  0  0  0  0  0  0  0
   -1.2980   -2.6953    0.0000 C   0  0  0  0  0  0  0  0  0  0  0  0
   -0.5517   -4.0019    0.0000 C   0  0  0  0  0  0  0  0  0  0  0  0
   -1.2025   -5.3534    0.0000 Cl  0  0  0  0  0  0  0  0  0  0  0  0
    0.9442   -3.8898    0.0000 C   0  0  0  0  0  0  0  0  0  0  0  0
    1.7891   -5.1292    0.0000 C   0  0  0  0  0  0  0  0  0  0  0  0
    1.1383   -6.4807    0.0000 C   0  0  0  0  0  0  0  0  0  0  0  0
   -0.3575   -6.5928    0.0000 O   0  0  0  0  0  0  0  0  0  0  0  0
    1.9833   -7.7200    0.0000 C   0  0  0  0  0  0  0  0  0  0  0  0
    3.4791   -7.6079    0.0000 C   0  0  0  0  0  0  0  0  0  0  0  0
    4.1299   -6.2565    0.0000 C   0  0  0  0  0  0  0  0  0  0  0  0
    3.2849   -5.0171    0.0000 C   0  0  0  0  0  0  0  0  0  0  0  0
    3.9358   -3.6657    0.0000 F   0  0  0  0  0  0  0  0  0  0  0  0
    1.5950   -2.5384    0.0000 C   0  0  0  0  0  0  0  0  0  0  0  0
    3.0908   -2.4263    0.0000 F   0  0  0  0  0  0  0  0  0  0  0  0
    0.7500   -1.2990    0.0000 C   0  0  0  0  0  0  0  0  0  0  0  0
    1.5000    0.0000    0.0000 N   0  0  0  0  0  0  0  0  0  0  0  0
    0.7500    1.2990    0.0000 C   0  0  0  0  0  0  0  0  0  0  0  0
   -0.7500    1.2990    0.0000 N   0  0  0  0  0  0  0  0  0  0  0  0
   -1.5000    0.0000    0.0000 C   0  0  0  0  0  0  0  0  0  0  0  0
   -0.7500   -1.2990    0.0000 C   0  0  0  0  0  0  0  0  0  0  0  0
   -2.9832    0.2236    0.0000 N   0  0  0  0  0  0  0  0  0  0  0  0
   -3.3170    1.6860    0.0000 C   0  0  0  0  0  0  0  0  0  0  0  0
   -4.7504    2.1281    0.0000 C   0  0  0  0  0  0  0  0  0  0  0  0
   -5.0842    3.5905    0.0000 C   0  0  0  0  0  0  0  0  0  0  0  0
  1  2  2  0
  2  3  1  0
  3  4  2  0
  3  5  1  0
  5  6  1  0
  7  6  1  6
  7  8  1  0
  8  9  1  0
  9 10  1  0
 10 11  1  0
 11 12  1  0
 11 13  2  0
 13 14  1  0
 14 15  2  0
 15 16  1  0
 15 17  1  0
 17 18  2  0
 18 19  1  0
 19 20  2  0
 20 21  1  0
 13 22  1  0
 22 23  1  0
 22 24  2  0
 24 25  1  0
 25 26  2  0
 26 27  1  0
 27 28  2  0
 28 29  1  0
 28 30  1  0
 30 31  1  0
 31 32  1  0
 32 33  1  6
 32  5  1  0
 30  7  1  0
 29 10  2  0
 20 14  1  0
 29 24  1  0
M  END
>  <molecule_chembl_id>  (256) 
CHEMBL5192093

>  <canonical_smiles>  (256) 
C=CC(=O)N1C[C@H]2COc3c(Cl)c(-c4c(O)cccc4F)c(F)c4ncnc(c34)N2C[C@H]1C

>  <pchembl_value_mean>  (256) 
7.06

>  <inchi>  (256) 
InChI=1S/C23H19ClF2N4O3/c1-3-15(32)29-8-12-9-33-22-18-21(27-10-28-23(18)30(12)7-11(29)2)20(26)17(19(22)24)16-13(25)5-4-6-14(16)31/h3-6,10-12,31H,1,7-9H2,2H3/t11-,12+/m1/s1

$$$$

     RDKit          2D

 32 36  0  0  0  0  0  0  0  0999 V2000
    5.2500   -1.2990    0.0000 C   0  0  0  0  0  0  0  0  0  0  0  0
    3.7500   -1.2990    0.0000 C   0  0  0  0  0  0  0  0  0  0  0  0
    3.0000    0.0000    0.0000 C   0  0  0  0  0  0  0  0  0  0  0  0
    3.7500    1.2990    0.0000 O   0  0  0  0  0  0  0  0  0  0  0  0
    1.5000    0.0000    0.0000 N   0  0  0  0  0  0  0  0  0  0  0  0
    0.7500   -1.2990    0.0000 C   0  0  0  0  0  0  0  0  0  0  0  0
   -0.7500   -1.2990    0.0000 C   0  0  0  0  0  0  0  0  0  0  0  0
   -1.5000    0.0000    0.0000 N   0  0  0  0  0  0  0  0  0  0  0  0
   -2.9832   -0.2236    0.0000 C   0  0  0  0  0  0  0  0  0  0  0  0
   -4.0828    0.7967    0.0000 C   0  0  0  0  0  0  0  0  0  0  0  0
   -5.4343    0.1459    0.0000 C   0  0  0  0  0  0  0  0  0  0  0  0
   -6.6736    0.9909    0.0000 C   0  0  0  0  0  0  0  0  0  0  0  0
   -8.0251    0.3400    0.0000 O   0  0  0  0  0  0  0  0  0  0  0  0
   -8.1372   -1.1558    0.0000 C   0  0  0  0  0  0  0  0  0  0  0  0
   -7.4864   -2.5072    0.0000 C   0  0  0  0  0  0  0  0  0  0  0  0
   -8.9822   -2.3951    0.0000 C   0  0  0  0  0  0  0  0  0  0  0  0
   -6.5615    2.4867    0.0000 C   0  0  0  0  0  0  0  0  0  0  0  0
   -7.8009    3.3316    0.0000 C   0  0  0  0  0  0  0  0  0  0  0  0
   -7.6888    4.8274    0.0000 C   0  0  0  0  0  0  0  0  0  0  0  0
   -6.3374    5.4783    0.0000 O   0  0  0  0  0  0  0  0  0  0  0  0
   -8.9282    5.6724    0.0000 C   0  0  0  0  0  0  0  0  0  0  0  0
  -10.2796    5.0216    0.0000 C   0  0  0  0  0  0  0  0  0  0  0  0
  -10.3917    3.5258    0.0000 C   0  0  0  0  0  0  0  0  0  0  0  0
   -9.1524    2.6808    0.0000 C   0  0  0  0  0  0  0  0  0  0  0  0
   -9.2644    1.1850    0.0000 Cl  0  0  0  0  0  0  0  0  0  0  0  0
   -5.2101    3.1375    0.0000 C   0  0  0  0  0  0  0  0  0  0  0  0
   -5.0980    4.6333    0.0000 F   0  0  0  0  0  0  0  0  0  0  0  0
   -3.9707    2.2925    0.0000 C   0  0  0  0  0  0  0  0  0  0  0  0
   -2.7314    3.1375    0.0000 O   0  0  0  0  0  0  0  0  0  0  0  0
   -1.2980    2.6953    0.0000 C   0  0  0  0  0  0  0  0  0  0  0  0
   -0.7500    1.2990    0.0000 C   0  0  0  0  0  0  0  0  0  0  0  0
    0.7500    1.2990    0.0000 C   0  0  0  0  0  0  0  0  0  0  0  0
  1  2  2  0
  2  3  1  0
  3  4  2  0
  3  5  1  0
  5  6  1  0
  6  7  1  0
  7  8  1  0
  8  9  1  0
  9 10  1  0
 10 11  2  0
 11 12  1  0
 12 13  1  0
 13 14  1  0
 14 15  1  0
 15 16  1  0
 12 17  2  0
 17 18  1  0
 18 19  2  0
 19 20  1  0
 19 21  1  0
 21 22  2  0
 22 23  1  0
 23 24  2  0
 24 25  1  0
 17 26  1  0
 26 27  1  0
 26 28  2  0
 28 29  1  0
 29 30  1  0
 31 30  1  1
 31 32  1  0
 32  5  1  0
 31  8  1  0
 28 10  1  0
 16 14  1  0
 24 18  1  0
M  END
>  <molecule_chembl_id>  (257) 
CHEMBL5431716

>  <canonical_smiles>  (257) 
C=CC(=O)N1CCN2Cc3cc(OC4CC4)c(-c4c(O)cccc4Cl)c(F)c3OC[C@H]2C1

>  <pchembl_value_mean>  (257) 
7.09

>  <inchi>  (257) 
InChI=1S/C24H24ClFN2O4/c1-2-20(30)28-9-8-27-11-14-10-19(32-16-6-7-16)22(21-17(25)4-3-5-18(21)29)23(26)24(14)31-13-15(27)12-28/h2-5,10,15-16,29H,1,6-9,11-13H2/t15-/m1/s1

$$$$

     RDKit          2D

 40 45  0  0  0  0  0  0  0  0999 V2000
   -0.0000  -15.5885    0.0000 C   0  0  0  0  0  0  0  0  0  0  0  0
   -0.7500  -14.2894    0.0000 C   0  0  0  0  0  0  0  0  0  0  0  0
   -0.0000  -12.9904    0.0000 C   0  0  0  0  0  0  0  0  0  0  0  0
    1.5000  -12.9904    0.0000 O   0  0  0  0  0  0  0  0  0  0  0  0
   -0.7500  -11.6913    0.0000 N   0  0  0  0  0  0  0  0  0  0  0  0
   -2.2500  -11.6913    0.0000 C   0  0  0  0  0  0  0  0  0  0  0  0
   -3.0000  -10.3923    0.0000 C   0  0  0  0  0  0  0  0  0  0  0  0
   -2.2500   -9.0933    0.0000 N   0  0  0  0  0  0  0  0  0  0  0  0
   -3.0000   -7.7942    0.0000 C   0  0  0  0  0  0  0  0  0  0  0  0
   -4.5000   -7.7942    0.0000 N   0  0  0  0  0  0  0  0  0  0  0  0
   -5.2500   -6.4952    0.0000 C   0  0  0  0  0  0  0  0  0  0  0  0
   -6.7500   -6.4952    0.0000 O   0  0  0  0  0  0  0  0  0  0  0  0
   -7.5000   -5.1962    0.0000 C   0  0  0  0  0  0  0  0  0  0  0  0
   -9.0000   -5.1962    0.0000 C   0  0  0  0  0  0  0  0  0  0  0  0
   -9.8817   -6.4097    0.0000 C   0  0  0  0  0  0  0  0  0  0  0  0
  -11.3083   -5.9462    0.0000 C   0  0  0  0  0  0  0  0  0  0  0  0
  -11.3083   -4.4462    0.0000 C   0  0  0  0  0  0  0  0  0  0  0  0
   -9.8817   -3.9826    0.0000 N   0  0  0  0  0  0  0  0  0  0  0  0
   -9.4182   -2.5560    0.0000 C   0  0  0  0  0  0  0  0  0  0  0  0
   -4.5000   -5.1962    0.0000 N   0  0  0  0  0  0  0  0  0  0  0  0
   -3.0000   -5.1962    0.0000 C   0  0  0  0  0  0  0  0  0  0  0  0
   -2.2500   -6.4952    0.0000 C   0  0  0  0  0  0  0  0  0  0  0  0
   -0.7500   -6.4952    0.0000 C   0  0  0  0  0  0  0  0  0  0  0  0
   -0.0000   -5.1962    0.0000 C   0  0  0  0  0  0  0  0  0  0  0  0
   -0.7500   -3.8971    0.0000 C   0  0  0  0  0  0  0  0  0  0  0  0
    0.7500   -3.8971    0.0000 C   0  0  0  0  0  0  0  0  0  0  0  0
    1.5000   -2.5981    0.0000 C   0  0  0  0  0  0  0  0  0  0  0  0
    0.7500   -1.2990    0.0000 C   0  0  0  0  0  0  0  0  0  0  0  0
    1.5000    0.0000    0.0000 C   0  0  0  0  0  0  0  0  0  0  0  0
    0.7500    1.2990    0.0000 C   0  0  0  0  0  0  0  0  0  0  0  0
   -0.7500    1.2990    0.0000 C   0  0  0  0  0  0  0  0  0  0  0  0
   -1.5000    0.0000    0.0000 C   0  0  0  0  0  0  0  0  0  0  0  0
   -0.7500   -1.2990    0.0000 C   0  0  0  0  0  0  0  0  0  0  0  0
   -1.5000   -2.5981    0.0000 C   0  0  0  0  0  0  0  0  0  0  0  0
   -2.2500   -3.8971    0.0000 C   0  0  0  0  0  0  0  0  0  0  0  0
   -0.7500   -9.0933    0.0000 C   0  0  0  0  0  0  0  0  0  0  0  0
   -0.0000  -10.3923    0.0000 C   0  0  0  0  0  0  0  0  0  0  0  0
    1.5000  -10.3923    0.0000 C   0  0  0  0  0  0  0  0  0  0  0  0
    2.2500   -9.0933    0.0000 C   0  0  0  0  0  0  0  0  0  0  0  0
    3.0000   -7.7942    0.0000 N   0  0  0  0  0  0  0  0  0  0  0  0
  1  2  2  0
  2  3  1  0
  3  4  2  0
  3  5  1  0
  5  6  1  0
  6  7  1  0
  7  8  1  0
  8  9  1  0
  9 10  2  0
 10 11  1  0
 11 12  1  0
 12 13  1  0
 14 13  1  6
 14 15  1  0
 15 16  1  0
 16 17  1  0
 17 18  1  0
 18 19  1  0
 11 20  2  0
 20 21  1  0
 21 22  2  0
 22 23  1  0
 23 24  1  0
 24 25  1  0
 25 26  1  0
 26 27  1  0
 27 28  1  0
 28 29  2  0
 29 30  1  0
 30 31  2  0
 31 32  1  0
 32 33  2  0
 33 34  1  0
 25 35  1  0
  8 36  1  0
 36 37  1  0
 37 38  1  6
 38 39  1  0
 39 40  3  0
 37  5  1  0
 22  9  1  0
 34 25  1  0
 18 14  1  0
 35 21  1  0
 33 28  1  0
M  END
>  <molecule_chembl_id>  (258) 
CHEMBL5091178

>  <canonical_smiles>  (258) 
C=CC(=O)N1CCN(c2nc(OC[C@@H]3CCCN3C)nc3c2CCC2(CCc4ccccc4C2)C3)C[C@@H]1CC#N

>  <pchembl_value_mean>  (258) 
7.095

>  <inchi>  (258) 
InChI=1S/C32H40N6O2/c1-3-29(39)38-18-17-37(21-25(38)12-15-33)30-27-11-14-32(13-10-23-7-4-5-8-24(23)19-32)20-28(27)34-31(35-30)40-22-26-9-6-16-36(26)2/h3-5,7-8,25-26H,1,6,9-14,16-22H2,2H3/t25-,26-,32?/m0/s1

$$$$

     RDKit          2D

 38 42  0  0  0  0  0  0  0  0999 V2000
   -9.7500   -1.2990    0.0000 C   0  0  0  0  0  0  0  0  0  0  0  0
   -8.2500   -1.2990    0.0000 C   0  0  0  0  0  0  0  0  0  0  0  0
   -7.5000   -2.5981    0.0000 C   0  0  0  0  0  0  0  0  0  0  0  0
   -8.2500   -3.8971    0.0000 O   0  0  0  0  0  0  0  0  0  0  0  0
   -6.0000   -2.5981    0.0000 N   0  0  0  0  0  0  0  0  0  0  0  0
   -5.2500   -1.2990    0.0000 C   0  0  0  0  0  0  0  0  0  0  0  0
   -3.7500   -1.2990    0.0000 C   0  0  0  0  0  0  0  0  0  0  0  0
   -3.0000   -2.5981    0.0000 N   0  0  0  0  0  0  0  0  0  0  0  0
   -1.5000   -2.5981    0.0000 C   0  0  0  0  0  0  0  0  0  0  0  0
   -0.7500   -3.8971    0.0000 N   0  0  0  0  0  0  0  0  0  0  0  0
    0.7500   -3.8971    0.0000 C   0  0  0  0  0  0  0  0  0  0  0  0
    1.1772   -4.9037    0.0000 O   0  0  0  0  0  0  0  0  0  0  0  0
    1.5000   -2.5981    0.0000 N   0  0  0  0  0  0  0  0  0  0  0  0
    3.0000   -2.5981    0.0000 C   0  0  0  0  0  0  0  0  0  0  0  0
    3.7500   -1.2990    0.0000 C   0  0  0  0  0  0  0  0  0  0  0  0
    5.2500   -1.2990    0.0000 C   0  0  0  0  0  0  0  0  0  0  0  0
    6.0000   -2.5981    0.0000 C   0  0  0  0  0  0  0  0  0  0  0  0
    5.2500   -3.8971    0.0000 C   0  0  0  0  0  0  0  0  0  0  0  0
    3.7500   -3.8971    0.0000 C   0  0  0  0  0  0  0  0  0  0  0  0
    3.0000   -5.1962    0.0000 C   0  0  0  0  0  0  0  0  0  0  0  0
    3.7500   -6.4952    0.0000 C   0  0  0  0  0  0  0  0  0  0  0  0
    1.9147   -5.3294    0.0000 C   0  0  0  0  0  0  0  0  0  0  0  0
    0.7500   -1.2990    0.0000 C   0  0  0  0  0  0  0  0  0  0  0  0
    1.5000    0.0000    0.0000 C   0  0  0  0  0  0  0  0  0  0  0  0
    0.7500    1.2990    0.0000 C   0  0  0  0  0  0  0  0  0  0  0  0
    1.5000    2.5981    0.0000 C   0  0  0  0  0  0  0  0  0  0  0  0
    3.0000    2.5981    0.0000 C   0  0  0  0  0  0  0  0  0  0  0  0
    3.7500    3.8971    0.0000 C   0  0  0  0  0  0  0  0  0  0  0  0
    3.0000    5.1962    0.0000 C   0  0  0  0  0  0  0  0  0  0  0  0
    1.5000    5.1962    0.0000 C   0  0  0  0  0  0  0  0  0  0  0  0
    0.7500    3.8971    0.0000 C   0  0  0  0  0  0  0  0  0  0  0  0
   -0.7500    3.8971    0.0000 F   0  0  0  0  0  0  0  0  0  0  0  0
   -0.7500    1.2990    0.0000 C   0  0  0  0  0  0  0  0  0  0  0  0
   -1.5000    2.5981    0.0000 Cl  0  0  0  0  0  0  0  0  0  0  0  0
   -1.5000    0.0000    0.0000 C   0  0  0  0  0  0  0  0  0  0  0  0
   -0.7500   -1.2990    0.0000 C   0  0  0  0  0  0  0  0  0  0  0  0
   -3.7500   -3.8971    0.0000 C   0  0  0  0  0  0  0  0  0  0  0  0
   -5.2500   -3.8971    0.0000 C   0  0  0  0  0  0  0  0  0  0  0  0
  1  2  2  0
  2  3  1  0
  3  4  2  0
  3  5  1  0
  5  6  1  0
  6  7  1  0
  7  8  1  0
  8  9  1  0
  9 10  2  0
 10 11  1  0
 11 12  2  0
 11 13  1  0
 13 14  1  0
 14 15  2  0
 15 16  1  0
 16 17  2  0
 17 18  1  0
 18 19  2  0
 19 20  1  0
 20 21  1  0
 20 22  1  0
 13 23  1  0
 23 24  2  0
 24 25  1  0
 25 26  1  0
 26 27  2  0
 27 28  1  0
 28 29  2  0
 29 30  1  0
 30 31  2  0
 31 32  1  0
 25 33  2  0
 33 34  1  0
 33 35  1  0
 35 36  2  0
  8 37  1  0
 37 38  1  0
 38  5  1  0
 36  9  1  0
 19 14  1  0
 36 23  1  0
 31 26  1  0
M  END
>  <molecule_chembl_id>  (259) 
CHEMBL4469638

>  <canonical_smiles>  (259) 
C=CC(=O)N1CCN(c2nc(=O)n(-c3ccccc3C(C)C)c3cc(-c4ccccc4F)c(Cl)cc23)CC1

>  <pchembl_value_mean>  (259) 
7.1

>  <inchi>  (259) 
InChI=1S/C30H28ClFN4O2/c1-4-28(37)34-13-15-35(16-14-34)29-23-17-24(31)22(21-10-5-7-11-25(21)32)18-27(23)36(30(38)33-29)26-12-8-6-9-20(26)19(2)3/h4-12,17-19H,1,13-16H2,2-3H3

$$$$

     RDKit          2D

 41 45  0  0  0  0  0  0  0  0999 V2000
   -9.7500   -1.2990    0.0000 C   0  0  0  0  0  0  0  0  0  0  0  0
   -8.2500   -1.2990    0.0000 C   0  0  0  0  0  0  0  0  0  0  0  0
   -7.5000   -2.5981    0.0000 C   0  0  0  0  0  0  0  0  0  0  0  0
   -8.2500   -3.8971    0.0000 O   0  0  0  0  0  0  0  0  0  0  0  0
   -6.0000   -2.5981    0.0000 N   0  0  0  0  0  0  0  0  0  0  0  0
   -5.2500   -1.2990    0.0000 C   0  0  0  0  0  0  0  0  0  0  0  0
   -3.7500   -1.2990    0.0000 C   0  0  0  0  0  0  0  0  0  0  0  0
   -3.0000   -2.5981    0.0000 N   0  0  0  0  0  0  0  0  0  0  0  0
   -1.5000   -2.5981    0.0000 C   0  0  0  0  0  0  0  0  0  0  0  0
   -0.7500   -3.8971    0.0000 N   0  0  0  0  0  0  0  0  0  0  0  0
    0.7500   -3.8971    0.0000 C   0  0  0  0  0  0  0  0  0  0  0  0
    1.6528   -5.0950    0.0000 O   0  0  0  0  0  0  0  0  0  0  0  0
    1.5000   -2.5981    0.0000 N   0  0  0  0  0  0  0  0  0  0  0  0
    3.0000   -2.5981    0.0000 C   0  0  0  0  0  0  0  0  0  0  0  0
    3.7500   -1.2990    0.0000 C   0  0  0  0  0  0  0  0  0  0  0  0
    5.2500   -1.2990    0.0000 C   0  0  0  0  0  0  0  0  0  0  0  0
    6.0000   -2.5981    0.0000 C   0  0  0  0  0  0  0  0  0  0  0  0
    5.2500   -3.8971    0.0000 C   0  0  0  0  0  0  0  0  0  0  0  0
    3.7500   -3.8971    0.0000 C   0  0  0  0  0  0  0  0  0  0  0  0
    3.0000   -5.1962    0.0000 C   0  0  0  0  0  0  0  0  0  0  0  0
    1.8021   -4.2934    0.0000 C   0  0  0  0  0  0  0  0  0  0  0  0
    4.2990   -5.9462    0.0000 C   0  0  0  0  0  0  0  0  0  0  0  0
    2.2500   -6.4952    0.0000 C   0  0  0  0  0  0  0  0  0  0  0  0
    0.7500   -1.2990    0.0000 C   0  0  0  0  0  0  0  0  0  0  0  0
    1.5000    0.0000    0.0000 N   0  0  0  0  0  0  0  0  0  0  0  0
    0.7500    1.2990    0.0000 C   0  0  0  0  0  0  0  0  0  0  0  0
    1.5000    2.5981    0.0000 C   0  0  0  0  0  0  0  0  0  0  0  0
    3.0000    2.5981    0.0000 C   0  0  0  0  0  0  0  0  0  0  0  0
    3.7500    1.2990    0.0000 O   0  0  0  0  0  0  0  0  0  0  0  0
    3.7500    3.8971    0.0000 C   0  0  0  0  0  0  0  0  0  0  0  0
    3.0000    5.1962    0.0000 C   0  0  0  0  0  0  0  0  0  0  0  0
    1.5000    5.1962    0.0000 C   0  0  0  0  0  0  0  0  0  0  0  0
    0.7500    3.8971    0.0000 C   0  0  0  0  0  0  0  0  0  0  0  0
   -0.7500    3.8971    0.0000 F   0  0  0  0  0  0  0  0  0  0  0  0
   -0.7500    1.2990    0.0000 C   0  0  0  0  0  0  0  0  0  0  0  0
   -1.5000    2.5981    0.0000 Cl  0  0  0  0  0  0  0  0  0  0  0  0
   -1.5000    0.0000    0.0000 C   0  0  0  0  0  0  0  0  0  0  0  0
   -0.7500   -1.2990    0.0000 C   0  0  0  0  0  0  0  0  0  0  0  0
   -3.7500   -3.8971    0.0000 C   0  0  0  0  0  0  0  0  0  0  0  0
   -3.0000   -5.1962    0.0000 C   0  0  0  0  0  0  0  0  0  0  0  0
   -5.2500   -3.8971    0.0000 C   0  0  0  0  0  0  0  0  0  0  0  0
  1  2  2  0
  2  3  1  0
  3  4  2  0
  3  5  1  0
  5  6  1  0
  6  7  1  0
  7  8  1  0
  8  9  1  0
  9 10  2  0
 10 11  1  0
 11 12  2  0
 11 13  1  0
 13 14  1  0
 14 15  2  0
 15 16  1  0
 16 17  2  0
 17 18  1  0
 18 19  2  0
 19 20  1  0
 20 21  1  0
 20 22  1  0
 20 23  1  0
 13 24  1  0
 24 25  2  0
 25 26  1  0
 26 27  1  0
 27 28  2  0
 28 29  1  0
 28 30  1  0
 30 31  2  0
 31 32  1  0
 32 33  2  0
 33 34  1  0
 26 35  2  0
 35 36  1  0
 35 37  1  0
 37 38  2  0
  8 39  1  0
 39 40  1  1
 39 41  1  0
 41  5  1  0
 38  9  1  0
 19 14  1  0
 38 24  1  0
 33 27  1  0
M  END
>  <molecule_chembl_id>  (260) 
CHEMBL4467413

>  <canonical_smiles>  (260) 
C=CC(=O)N1CCN(c2nc(=O)n(-c3ccccc3C(C)(C)C)c3nc(-c4c(O)cccc4F)c(Cl)cc23)[C@@H](C)C1

>  <pchembl_value_mean>  (260) 
7.11

>  <inchi>  (260) 
InChI=1S/C31H31ClFN5O3/c1-6-25(40)36-14-15-37(18(2)17-36)28-19-16-21(32)27(26-22(33)11-9-13-24(26)39)34-29(19)38(30(41)35-28)23-12-8-7-10-20(23)31(3,4)5/h6-13,16,18,39H,1,14-15,17H2,2-5H3/t18-/m0/s1

$$$$

     RDKit          2D

 39 43  0  0  0  0  0  0  0  0999 V2000
   -8.2500   -3.8971    0.0000 C   0  0  0  0  0  0  0  0  0  0  0  0
   -7.5000   -2.5981    0.0000 C   0  0  0  0  0  0  0  0  0  0  0  0
   -8.2500   -1.2990    0.0000 C   0  0  0  0  0  0  0  0  0  0  0  0
   -7.5000    0.0000    0.0000 C   0  0  0  0  0  0  0  0  0  0  0  0
   -8.2500    1.2990    0.0000 N   0  0  0  0  0  0  0  0  0  0  0  0
   -6.0000    0.0000    0.0000 N   0  0  0  0  0  0  0  0  0  0  0  0
   -5.2500   -1.2990    0.0000 C   0  0  0  0  0  0  0  0  0  0  0  0
   -3.7500   -1.2990    0.0000 C   0  0  0  0  0  0  0  0  0  0  0  0
   -3.0000   -2.5981    0.0000 C   0  0  0  0  0  0  0  0  0  0  0  0
   -3.5331   -3.3054    0.0000 Cl  0  0  0  0  0  0  0  0  0  0  0  0
   -1.5000   -2.5981    0.0000 C   0  0  0  0  0  0  0  0  0  0  0  0
   -0.7500   -1.2990    0.0000 C   0  0  0  0  0  0  0  0  0  0  0  0
    0.7500   -1.2990    0.0000 C   0  0  0  0  0  0  0  0  0  0  0  0
    1.5000   -2.5981    0.0000 N   0  0  0  0  0  0  0  0  0  0  0  0
    0.7500   -3.8971    0.0000 C   0  0  0  0  0  0  0  0  0  0  0  0
    1.5000   -5.1962    0.0000 C   0  0  0  0  0  0  0  0  0  0  0  0
    3.0000   -5.1962    0.0000 N   0  0  0  0  0  0  0  0  0  0  0  0
    3.7500   -3.8971    0.0000 C   0  0  0  0  0  0  0  0  0  0  0  0
    3.0000   -2.5981    0.0000 C   0  0  0  0  0  0  0  0  0  0  0  0
    3.7500   -1.2990    0.0000 C   0  0  0  0  0  0  0  0  0  0  0  0
    1.5000    0.0000    0.0000 N   0  0  0  0  0  0  0  0  0  0  0  0
    0.7500    1.2990    0.0000 C   0  0  0  0  0  0  0  0  0  0  0  0
    1.5000    2.5981    0.0000 O   0  0  0  0  0  0  0  0  0  0  0  0
    3.0000    2.5981    0.0000 C   0  0  0  0  0  0  0  0  0  0  0  0
    3.7500    3.8971    0.0000 C   0  0  0  0  0  0  0  0  0  0  0  0
    3.1399    5.2674    0.0000 C   0  0  0  0  0  0  0  0  0  0  0  0
    4.2546    6.2711    0.0000 C   0  0  0  0  0  0  0  0  0  0  0  0
    5.5537    5.5211    0.0000 C   0  0  0  0  0  0  0  0  0  0  0  0
    5.2418    4.0539    0.0000 N   0  0  0  0  0  0  0  0  0  0  0  0
    6.2455    2.9392    0.0000 C   0  0  0  0  0  0  0  0  0  0  0  0
   -0.7500    1.2990    0.0000 N   0  0  0  0  0  0  0  0  0  0  0  0
   -1.5000    0.0000    0.0000 C   0  0  0  0  0  0  0  0  0  0  0  0
   -3.0000    0.0000    0.0000 C   0  0  0  0  0  0  0  0  0  0  0  0
   -3.7500    1.2990    0.0000 F   0  0  0  0  0  0  0  0  0  0  0  0
   -6.0000   -2.5981    0.0000 C   0  0  0  0  0  0  0  0  0  0  0  0
   -5.2500   -3.8971    0.0000 C   0  0  0  0  0  0  0  0  0  0  0  0
   -4.5000   -5.1962    0.0000 F   0  0  0  0  0  0  0  0  0  0  0  0
   -4.5426   -3.3640    0.0000 F   0  0  0  0  0  0  0  0  0  0  0  0
   -6.5490   -4.6471    0.0000 F   0  0  0  0  0  0  0  0  0  0  0  0
  1  2  1  0
  2  3  2  0
  3  4  1  0
  4  5  1  0
  4  6  2  0
  6  7  1  0
  7  8  1  0
  8  9  2  0
  9 10  1  0
  9 11  1  0
 11 12  2  0
 12 13  1  0
 13 14  1  0
 14 15  1  0
 15 16  1  0
 16 17  1  0
 17 18  1  0
 18 19  1  0
 19 20  1  1
 13 21  2  0
 21 22  1  0
 22 23  1  0
 23 24  1  0
 25 24  1  6
 25 26  1  0
 26 27  1  0
 27 28  1  0
 28 29  1  0
 29 30  1  0
 22 31  2  0
 31 32  1  0
 32 33  2  0
 33 34  1  0
  7 35  2  0
 35 36  1  0
 36 37  1  0
 36 38  1  0
 36 39  1  0
 35  2  1  0
 33  8  1  0
 32 12  1  0
 19 14  1  0
 29 25  1  0
M  END
>  <molecule_chembl_id>  (261) 
CHEMBL5424715

>  <canonical_smiles>  (261) 
Cc1cc(N)nc(-c2c(Cl)cc3c(N4CCNC[C@@H]4C)nc(OC[C@@H]4CCCN4C)nc3c2F)c1C(F)(F)F

>  <pchembl_value_mean>  (261) 
7.11

>  <inchi>  (261) 
InChI=1S/C26H30ClF4N7O/c1-13-9-18(32)34-23(20(13)26(29,30)31)19-17(27)10-16-22(21(19)28)35-25(39-12-15-5-4-7-37(15)3)36-24(16)38-8-6-33-11-14(38)2/h9-10,14-15,33H,4-8,11-12H2,1-3H3,(H2,32,34)/t14-,15-/m0/s1

$$$$

     RDKit          2D

 39 44  0  0  0  0  0  0  0  0999 V2000
    9.7500   -3.8971    0.0000 C   0  0  0  0  0  0  0  0  0  0  0  0
    8.2500   -3.8971    0.0000 C   0  0  0  0  0  0  0  0  0  0  0  0
    7.5000   -2.5981    0.0000 C   0  0  0  0  0  0  0  0  0  0  0  0
    8.2500   -1.2990    0.0000 O   0  0  0  0  0  0  0  0  0  0  0  0
    6.0000   -2.5981    0.0000 N   0  0  0  0  0  0  0  0  0  0  0  0
    5.2500   -3.8971    0.0000 C   0  0  0  0  0  0  0  0  0  0  0  0
    3.7500   -3.8971    0.0000 C   0  0  0  0  0  0  0  0  0  0  0  0
    3.0000   -2.5981    0.0000 N   0  0  0  0  0  0  0  0  0  0  0  0
    1.5000   -2.5981    0.0000 C   0  0  0  0  0  0  0  0  0  0  0  0
    0.7500   -3.8971    0.0000 N   0  0  0  0  0  0  0  0  0  0  0  0
   -0.7500   -3.8971    0.0000 C   0  0  0  0  0  0  0  0  0  0  0  0
   -1.5000   -5.1962    0.0000 O   0  0  0  0  0  0  0  0  0  0  0  0
   -3.0000   -5.1962    0.0000 C   0  0  0  0  0  0  0  0  0  0  0  0
   -3.7500   -6.4952    0.0000 C   0  0  0  0  0  0  0  0  0  0  0  0
   -3.1399   -7.8655    0.0000 C   0  0  0  0  0  0  0  0  0  0  0  0
   -4.2546   -8.8692    0.0000 C   0  0  0  0  0  0  0  0  0  0  0  0
   -5.5537   -8.1192    0.0000 C   0  0  0  0  0  0  0  0  0  0  0  0
   -5.2418   -6.6520    0.0000 N   0  0  0  0  0  0  0  0  0  0  0  0
   -6.2455   -5.5373    0.0000 C   0  0  0  0  0  0  0  0  0  0  0  0
   -1.5000   -2.5981    0.0000 N   0  0  0  0  0  0  0  0  0  0  0  0
   -0.7500   -1.2990    0.0000 C   0  0  0  0  0  0  0  0  0  0  0  0
    0.7500   -1.2990    0.0000 C   0  0  0  0  0  0  0  0  0  0  0  0
    1.5000    0.0000    0.0000 C   0  0  0  0  0  0  0  0  0  0  0  0
    0.7500    1.2990    0.0000 C   0  0  0  0  0  0  0  0  0  0  0  0
   -0.7500    1.2990    0.0000 N   0  0  0  0  0  0  0  0  0  0  0  0
   -1.5000    2.5981    0.0000 C   0  0  0  0  0  0  0  0  0  0  0  0
   -3.0000    2.5981    0.0000 C   0  0  0  0  0  0  0  0  0  0  0  0
   -3.7500    3.8971    0.0000 C   0  0  0  0  0  0  0  0  0  0  0  0
   -5.2500    3.8971    0.0000 O   0  0  0  0  0  0  0  0  0  0  0  0
   -3.0000    5.1962    0.0000 C   0  0  0  0  0  0  0  0  0  0  0  0
   -1.5000    5.1962    0.0000 C   0  0  0  0  0  0  0  0  0  0  0  0
   -0.7500    6.4952    0.0000 C   0  0  0  0  0  0  0  0  0  0  0  0
    0.7500    6.4952    0.0000 C   0  0  0  0  0  0  0  0  0  0  0  0
    1.5000    5.1962    0.0000 C   0  0  0  0  0  0  0  0  0  0  0  0
    0.7500    3.8971    0.0000 C   0  0  0  0  0  0  0  0  0  0  0  0
   -0.7500    3.8971    0.0000 C   0  0  0  0  0  0  0  0  0  0  0  0
   -1.5000    0.0000    0.0000 C   0  0  0  0  0  0  0  0  0  0  0  0
    3.7500   -1.2990    0.0000 C   0  0  0  0  0  0  0  0  0  0  0  0
    5.2500   -1.2990    0.0000 C   0  0  0  0  0  0  0  0  0  0  0  0
  1  2  2  0
  2  3  1  0
  3  4  2  0
  3  5  1  0
  5  6  1  0
  6  7  1  0
  7  8  1  0
  8  9  1  0
  9 10  2  0
 10 11  1  0
 11 12  1  0
 12 13  1  0
 14 13  1  6
 14 15  1  0
 15 16  1  0
 16 17  1  0
 17 18  1  0
 18 19  1  0
 11 20  2  0
 20 21  1  0
 21 22  2  0
 22 23  1  0
 23 24  1  0
 24 25  1  0
 25 26  1  0
 26 27  2  0
 27 28  1  0
 28 29  1  0
 28 30  2  0
 30 31  1  0
 31 32  2  0
 32 33  1  0
 33 34  2  0
 34 35  1  0
 35 36  2  0
 25 37  1  0
  8 38  1  0
 38 39  1  0
 39  5  1  0
 22  9  1  0
 36 26  1  0
 18 14  1  0
 37 21  1  0
 36 31  1  0
M  END
>  <molecule_chembl_id>  (262) 
CHEMBL4456598

>  <canonical_smiles>  (262) 
C=CC(=O)N1CCN(c2nc(OC[C@@H]3CCCN3C)nc3c2CCN(c2cc(O)cc4ccccc24)C3)CC1

>  <pchembl_value_mean>  (262) 
7.11

>  <inchi>  (262) 
InChI=1S/C30H36N6O3/c1-3-28(38)34-13-15-35(16-14-34)29-25-10-12-36(27-18-23(37)17-21-7-4-5-9-24(21)27)19-26(25)31-30(32-29)39-20-22-8-6-11-33(22)2/h3-5,7,9,17-18,22,37H,1,6,8,10-16,19-20H2,2H3/t22-/m0/s1

$$$$

     RDKit          2D

 30 33  0  0  0  0  0  0  0  0999 V2000
    5.2500   -1.2990    0.0000 C   0  0  0  0  0  0  0  0  0  0  0  0
    3.7500   -1.2990    0.0000 C   0  0  0  0  0  0  0  0  0  0  0  0
    3.0000    0.0000    0.0000 C   0  0  0  0  0  0  0  0  0  0  0  0
    3.7500    1.2990    0.0000 O   0  0  0  0  0  0  0  0  0  0  0  0
    1.5000    0.0000    0.0000 N   0  0  0  0  0  0  0  0  0  0  0  0
    0.7500   -1.2990    0.0000 C   0  0  0  0  0  0  0  0  0  0  0  0
   -0.7500   -1.2990    0.0000 C   0  0  0  0  0  0  0  0  0  0  0  0
   -1.5000    0.0000    0.0000 N   0  0  0  0  0  0  0  0  0  0  0  0
   -2.9832   -0.2236    0.0000 C   0  0  0  0  0  0  0  0  0  0  0  0
   -4.0828    0.7967    0.0000 C   0  0  0  0  0  0  0  0  0  0  0  0
   -5.4343    0.1459    0.0000 C   0  0  0  0  0  0  0  0  0  0  0  0
   -6.6736    0.9909    0.0000 C   0  0  0  0  0  0  0  0  0  0  0  0
   -8.0251    0.3400    0.0000 O   0  0  0  0  0  0  0  0  0  0  0  0
   -8.1372   -1.1558    0.0000 C   0  0  0  0  0  0  0  0  0  0  0  0
   -6.5615    2.4867    0.0000 C   0  0  0  0  0  0  0  0  0  0  0  0
   -7.8009    3.3316    0.0000 C   0  0  0  0  0  0  0  0  0  0  0  0
   -7.6888    4.8274    0.0000 C   0  0  0  0  0  0  0  0  0  0  0  0
   -6.3374    5.4783    0.0000 O   0  0  0  0  0  0  0  0  0  0  0  0
   -8.9282    5.6724    0.0000 C   0  0  0  0  0  0  0  0  0  0  0  0
  -10.2796    5.0216    0.0000 C   0  0  0  0  0  0  0  0  0  0  0  0
  -10.3917    3.5258    0.0000 C   0  0  0  0  0  0  0  0  0  0  0  0
   -9.1524    2.6808    0.0000 C   0  0  0  0  0  0  0  0  0  0  0  0
   -9.2644    1.1850    0.0000 Cl  0  0  0  0  0  0  0  0  0  0  0  0
   -5.2101    3.1375    0.0000 C   0  0  0  0  0  0  0  0  0  0  0  0
   -5.0980    4.6333    0.0000 F   0  0  0  0  0  0  0  0  0  0  0  0
   -3.9707    2.2925    0.0000 C   0  0  0  0  0  0  0  0  0  0  0  0
   -2.7314    3.1375    0.0000 O   0  0  0  0  0  0  0  0  0  0  0  0
   -1.2980    2.6953    0.0000 C   0  0  0  0  0  0  0  0  0  0  0  0
   -0.7500    1.2990    0.0000 C   0  0  0  0  0  0  0  0  0  0  0  0
    0.7500    1.2990    0.0000 C   0  0  0  0  0  0  0  0  0  0  0  0
  1  2  2  0
  2  3  1  0
  3  4  2  0
  3  5  1  0
  5  6  1  0
  6  7  1  0
  7  8  1  0
  8  9  1  0
  9 10  1  0
 10 11  2  0
 11 12  1  0
 12 13  1  0
 13 14  1  0
 12 15  2  0
 15 16  1  0
 16 17  2  0
 17 18  1  0
 17 19  1  0
 19 20  2  0
 20 21  1  0
 21 22  2  0
 22 23  1  0
 15 24  1  0
 24 25  1  0
 24 26  2  0
 26 27  1  0
 27 28  1  0
 29 28  1  1
 29 30  1  0
 30  5  1  0
 29  8  1  0
 26 10  1  0
 22 16  1  0
M  END
>  <molecule_chembl_id>  (263) 
CHEMBL5411433

>  <canonical_smiles>  (263) 
C=CC(=O)N1CCN2Cc3cc(OC)c(-c4c(O)cccc4Cl)c(F)c3OC[C@H]2C1

>  <pchembl_value_mean>  (263) 
7.13

>  <inchi>  (263) 
InChI=1S/C22H22ClFN2O4/c1-3-18(28)26-8-7-25-10-13-9-17(29-2)20(19-15(23)5-4-6-16(19)27)21(24)22(13)30-12-14(25)11-26/h3-6,9,14,27H,1,7-8,10-12H2,2H3/t14-/m1/s1

$$$$

     RDKit          2D

 32 36  0  0  0  0  0  0  0  0999 V2000
    5.2500   -1.2990    0.0000 C   0  0  0  0  0  0  0  0  0  0  0  0
    3.7500   -1.2990    0.0000 C   0  0  0  0  0  0  0  0  0  0  0  0
    3.0000    0.0000    0.0000 C   0  0  0  0  0  0  0  0  0  0  0  0
    3.7500    1.2990    0.0000 O   0  0  0  0  0  0  0  0  0  0  0  0
    1.5000    0.0000    0.0000 N   0  0  0  0  0  0  0  0  0  0  0  0
    0.7500   -1.2990    0.0000 C   0  0  0  0  0  0  0  0  0  0  0  0
   -0.7500   -1.2990    0.0000 C   0  0  0  0  0  0  0  0  0  0  0  0
   -1.5000    0.0000    0.0000 N   0  0  0  0  0  0  0  0  0  0  0  0
   -3.0000    0.0000    0.0000 C   0  0  0  0  0  0  0  0  0  0  0  0
   -3.7500    1.2990    0.0000 C   0  0  0  0  0  0  0  0  0  0  0  0
   -5.2500    1.2990    0.0000 C   0  0  0  0  0  0  0  0  0  0  0  0
   -6.0000    0.0000    0.0000 N   0  0  0  0  0  0  0  0  0  0  0  0
   -5.2500   -1.2990    0.0000 C   0  0  0  0  0  0  0  0  0  0  0  0
   -6.0000   -2.5981    0.0000 C   0  0  0  0  0  0  0  0  0  0  0  0
   -5.2500   -3.8971    0.0000 C   0  0  0  0  0  0  0  0  0  0  0  0
   -6.0000   -5.1962    0.0000 C   0  0  0  0  0  0  0  0  0  0  0  0
   -7.5000   -5.1962    0.0000 C   0  0  0  0  0  0  0  0  0  0  0  0
   -8.2500   -3.8971    0.0000 O   0  0  0  0  0  0  0  0  0  0  0  0
   -8.2500   -6.4952    0.0000 C   0  0  0  0  0  0  0  0  0  0  0  0
   -7.5000   -7.7942    0.0000 C   0  0  0  0  0  0  0  0  0  0  0  0
   -6.0000   -7.7942    0.0000 C   0  0  0  0  0  0  0  0  0  0  0  0
   -5.2500   -6.4952    0.0000 C   0  0  0  0  0  0  0  0  0  0  0  0
   -3.7500   -6.4952    0.0000 F   0  0  0  0  0  0  0  0  0  0  0  0
   -3.7500   -3.8971    0.0000 C   0  0  0  0  0  0  0  0  0  0  0  0
   -3.0000   -5.1962    0.0000 Cl  0  0  0  0  0  0  0  0  0  0  0  0
   -3.0000   -2.5981    0.0000 C   0  0  0  0  0  0  0  0  0  0  0  0
   -3.7500   -1.2990    0.0000 C   0  0  0  0  0  0  0  0  0  0  0  0
   -3.0000    2.5981    0.0000 N   0  0  0  0  0  0  0  0  0  0  0  0
   -1.5000    2.5981    0.0000 C   0  0  0  0  0  0  0  0  0  0  0  0
   -0.7500    3.8971    0.0000 O   0  0  0  0  0  0  0  0  0  0  0  0
   -0.7500    1.2990    0.0000 C   0  0  0  0  0  0  0  0  0  0  0  0
    0.7500    1.2990    0.0000 C   0  0  0  0  0  0  0  0  0  0  0  0
  1  2  2  0
  2  3  1  0
  3  4  2  0
  3  5  1  0
  5  6  1  0
  6  7  1  0
  7  8  1  0
  8  9  1  0
  9 10  2  0
 10 11  1  0
 11 12  2  0
 12 13  1  0
 13 14  2  0
 14 15  1  0
 15 16  1  0
 16 17  2  0
 17 18  1  0
 17 19  1  0
 19 20  2  0
 20 21  1  0
 21 22  2  0
 22 23  1  0
 15 24  2  0
 24 25  1  0
 24 26  1  0
 26 27  2  0
 10 28  1  0
 28 29  1  0
 29 30  2  0
 29 31  1  0
 31 32  1  1
 32  5  1  0
 31  8  1  0
 27  9  1  0
 27 13  1  0
 22 16  1  0
M  END
>  <molecule_chembl_id>  (264) 
CHEMBL4453777

>  <canonical_smiles>  (264) 
C=CC(=O)N1CCN2c3c(cnc4cc(-c5c(O)cccc5F)c(Cl)cc34)NC(=O)[C@H]2C1

>  <pchembl_value_mean>  (264) 
7.14

>  <inchi>  (264) 
InChI=1S/C23H18ClFN4O3/c1-2-20(31)28-6-7-29-18(11-28)23(32)27-17-10-26-16-9-12(14(24)8-13(16)22(17)29)21-15(25)4-3-5-19(21)30/h2-5,8-10,18,30H,1,6-7,11H2,(H,27,32)/t18-/m1/s1

$$$$

     RDKit          2D

 41 48  0  0  0  0  0  0  0  0999 V2000
    4.5000    0.0000    0.0000 C   0  0  0  0  0  0  0  0  0  0  0  0
    3.0000    0.0000    0.0000 C   0  0  0  0  0  0  0  0  0  0  0  0
    1.5000    0.0000    0.0000 C   0  0  0  0  0  0  0  0  0  0  0  0
    0.7500   -1.2990    0.0000 C   0  0  0  0  0  0  0  0  0  0  0  0
   -0.7500   -1.2990    0.0000 C   0  0  0  0  0  0  0  0  0  0  0  0
   -1.5000    0.0000    0.0000 C   0  0  0  0  0  0  0  0  0  0  0  0
   -0.7500    1.2990    0.0000 C   0  0  0  0  0  0  0  0  0  0  0  0
   -1.5000    2.5981    0.0000 C   0  0  0  0  0  0  0  0  0  0  0  0
   -0.7500    3.8971    0.0000 C   0  0  0  0  0  0  0  0  0  0  0  0
    0.7500    3.8971    0.0000 C   0  0  0  0  0  0  0  0  0  0  0  0
    1.5000    2.5981    0.0000 C   0  0  0  0  0  0  0  0  0  0  0  0
    3.0000    2.5981    0.0000 C   0  0  0  0  0  0  0  0  0  0  0  0
    3.7500    1.2990    0.0000 N   0  0  0  0  0  0  0  0  0  0  0  0
    5.2500    1.2990    0.0000 C   0  0  0  0  0  0  0  0  0  0  0  0
    6.0000    2.5981    0.0000 C   0  0  0  0  0  0  0  0  0  0  0  0
    7.5000    2.5981    0.0000 C   0  0  0  0  0  0  0  0  0  0  0  0
    8.2500    1.2990    0.0000 N   0  0  0  0  0  0  0  0  0  0  0  0
    9.7500    1.2990    0.0000 C   0  0  0  0  0  0  0  0  0  0  0  0
   10.5000   -0.0000    0.0000 C   0  0  0  0  0  0  0  0  0  0  0  0
   10.8119   -1.4672    0.0000 C   0  0  0  0  0  0  0  0  0  0  0  0
    9.5128   -2.2172    0.0000 C   0  0  0  0  0  0  0  0  0  0  0  0
    8.3981   -1.2135    0.0000 C   0  0  0  0  0  0  0  0  0  0  0  0
    7.5000   -0.0000    0.0000 C   0  0  0  0  0  0  0  0  0  0  0  0
    9.0082    0.1568    0.0000 N   0  0  0  0  0  0  0  0  0  0  0  0
    8.2500    3.8971    0.0000 N   0  0  0  0  0  0  0  0  0  0  0  0
    7.5000    5.1962    0.0000 C   0  0  0  0  0  0  0  0  0  0  0  0
    8.2500    6.4952    0.0000 O   0  0  0  0  0  0  0  0  0  0  0  0
    9.7500    6.4952    0.0000 C   0  0  0  0  0  0  0  0  0  0  0  0
   10.5000    7.7942    0.0000 C   0  0  0  0  0  0  0  0  0  0  0  0
    9.0328    8.1061    0.0000 C   0  0  0  0  0  0  0  0  0  0  0  0
    8.8760    9.5979    0.0000 C   0  0  0  0  0  0  0  0  0  0  0  0
   10.2463   10.2080    0.0000 C   0  0  0  0  0  0  0  0  0  0  0  0
   11.2500    9.0933    0.0000 N   0  0  0  0  0  0  0  0  0  0  0  0
   12.7172    8.7814    0.0000 C   0  0  0  0  0  0  0  0  0  0  0  0
   12.8740    7.2896    0.0000 C   0  0  0  0  0  0  0  0  0  0  0  0
   11.5037    6.6795    0.0000 C   0  0  0  0  0  0  0  0  0  0  0  0
    6.0000    5.1962    0.0000 N   0  0  0  0  0  0  0  0  0  0  0  0
    5.2500    3.8971    0.0000 C   0  0  0  0  0  0  0  0  0  0  0  0
    3.7500    3.8971    0.0000 C   0  0  0  0  0  0  0  0  0  0  0  0
    3.0000    5.1962    0.0000 F   0  0  0  0  0  0  0  0  0  0  0  0
    0.7500    1.2990    0.0000 C   0  0  0  0  0  0  0  0  0  0  0  0
  1  2  3  0
  2  3  1  0
  3  4  2  0
  4  5  1  0
  5  6  2  0
  6  7  1  0
  7  8  2  0
  8  9  1  0
  9 10  2  0
 10 11  1  0
 11 12  1  0
 12 13  2  0
 13 14  1  0
 14 15  2  0
 15 16  1  0
 16 17  1  0
 17 18  1  0
 19 18  1  1
 19 20  1  0
 20 21  1  0
 22 21  1  1
 22 23  1  0
 22 24  1  0
 16 25  2  0
 25 26  1  0
 26 27  1  0
 27 28  1  0
 28 29  1  0
 29 30  1  0
 30 31  1  0
 31 32  1  0
 32 33  1  0
 33 34  1  0
 34 35  1  0
 35 36  1  0
 26 37  2  0
 37 38  1  0
 38 39  2  0
 39 40  1  0
 11 41  2  0
 41  3  1  0
 41  7  1  0
 39 12  1  0
 38 15  1  0
 23 17  1  0
 33 29  1  0
 24 19  1  0
 36 29  1  0
M  END
>  <molecule_chembl_id>  (265) 
CHEMBL5091244

>  <canonical_smiles>  (265) 
C#Cc1cccc2cccc(-c3ncc4c(N5C[C@H]6CC[C@@H](C5)N6)nc(OCC56CCCN5CCC6)nc4c3F)c12

>  <pchembl_value_mean>  (265) 
7.15

>  <inchi>  (265) 
InChI=1S/C33H33FN6O/c1-2-21-7-3-8-22-9-4-10-25(27(21)22)29-28(34)30-26(17-35-29)31(39-18-23-11-12-24(19-39)36-23)38-32(37-30)41-20-33-13-5-15-40(33)16-6-14-33/h1,3-4,7-10,17,23-24,36H,5-6,11-16,18-20H2/t23-,24+

$$$$

     RDKit          2D

 43 49  0  0  0  0  0  0  0  0999 V2000
    4.8107  -10.9304    0.0000 C   0  0  0  0  0  0  0  0  0  0  0  0
    4.0607   -9.6313    0.0000 C   0  0  0  0  0  0  0  0  0  0  0  0
    4.8107   -8.3323    0.0000 C   0  0  0  0  0  0  0  0  0  0  0  0
    6.3107   -8.3323    0.0000 O   0  0  0  0  0  0  0  0  0  0  0  0
    4.0607   -7.0333    0.0000 N   0  0  0  0  0  0  0  0  0  0  0  0
    2.6118   -6.6450    0.0000 C   0  0  0  0  0  0  0  0  0  0  0  0
    3.0000   -5.1962    0.0000 C   0  0  0  0  0  0  0  0  0  0  0  0
    3.7500   -3.8971    0.0000 C   0  0  0  0  0  0  0  0  0  0  0  0
    3.0000   -2.5981    0.0000 C   0  0  0  0  0  0  0  0  0  0  0  0
    1.5000   -2.5981    0.0000 N   0  0  0  0  0  0  0  0  0  0  0  0
    0.7500   -1.2990    0.0000 C   0  0  0  0  0  0  0  0  0  0  0  0
    1.5000    0.0000    0.0000 N   0  0  0  0  0  0  0  0  0  0  0  0
    0.7500    1.2990    0.0000 C   0  0  0  0  0  0  0  0  0  0  0  0
    1.5000    2.5981    0.0000 O   0  0  0  0  0  0  0  0  0  0  0  0
    3.0000    2.5981    0.0000 C   0  0  0  0  0  0  0  0  0  0  0  0
    3.7500    1.2990    0.0000 C   0  0  0  0  0  0  0  0  0  0  0  0
    5.2500    1.2990    0.0000 C   0  0  0  0  0  0  0  0  0  0  0  0
    6.0000    2.5981    0.0000 N   0  0  0  0  0  0  0  0  0  0  0  0
    7.5000    2.5981    0.0000 C   0  0  0  0  0  0  0  0  0  0  0  0
    5.2500    3.8971    0.0000 C   0  0  0  0  0  0  0  0  0  0  0  0
    3.7500    3.8971    0.0000 C   0  0  0  0  0  0  0  0  0  0  0  0
   -0.7500    1.2990    0.0000 N   0  0  0  0  0  0  0  0  0  0  0  0
   -1.5000    0.0000    0.0000 C   0  0  0  0  0  0  0  0  0  0  0  0
   -3.0000    0.0000    0.0000 C   0  0  0  0  0  0  0  0  0  0  0  0
   -3.7500    1.2990    0.0000 F   0  0  0  0  0  0  0  0  0  0  0  0
   -3.7500   -1.2990    0.0000 C   0  0  0  0  0  0  0  0  0  0  0  0
   -5.2500   -1.2990    0.0000 C   0  0  0  0  0  0  0  0  0  0  0  0
   -6.0000    0.0000    0.0000 C   0  0  0  0  0  0  0  0  0  0  0  0
   -5.2500    1.2990    0.0000 C   0  0  0  0  0  0  0  0  0  0  0  0
   -7.5000    0.0000    0.0000 C   0  0  0  0  0  0  0  0  0  0  0  0
   -8.2500   -1.2990    0.0000 C   0  0  0  0  0  0  0  0  0  0  0  0
   -7.5000   -2.5981    0.0000 C   0  0  0  0  0  0  0  0  0  0  0  0
   -7.9635   -4.0247    0.0000 N   0  0  0  0  0  0  0  0  0  0  0  0
   -6.7500   -4.9063    0.0000 N   0  0  0  0  0  0  0  0  0  0  0  0
   -5.5365   -4.0247    0.0000 C   0  0  0  0  0  0  0  0  0  0  0  0
   -6.0000   -2.5981    0.0000 C   0  0  0  0  0  0  0  0  0  0  0  0
   -3.0000   -2.5981    0.0000 C   0  0  0  0  0  0  0  0  0  0  0  0
   -3.7500   -3.8971    0.0000 Cl  0  0  0  0  0  0  0  0  0  0  0  0
   -1.5000   -2.5981    0.0000 C   0  0  0  0  0  0  0  0  0  0  0  0
   -0.7500   -1.2990    0.0000 C   0  0  0  0  0  0  0  0  0  0  0  0
    0.7500   -3.8971    0.0000 C   0  0  0  0  0  0  0  0  0  0  0  0
    1.5000   -5.1962    0.0000 C   0  0  0  0  0  0  0  0  0  0  0  0
    4.4489   -5.5844    0.0000 C   0  0  0  0  0  0  0  0  0  0  0  0
  1  2  2  0
  2  3  1  0
  3  4  2  0
  3  5  1  0
  5  6  1  0
  6  7  1  0
  7  8  1  0
  8  9  1  0
  9 10  1  0
 10 11  1  0
 11 12  2  0
 12 13  1  0
 13 14  1  0
 14 15  1  0
 15 16  1  0
 16 17  1  0
 17 18  1  0
 18 19  1  0
 18 20  1  0
 20 21  1  0
 13 22  2  0
 22 23  1  0
 23 24  2  0
 24 25  1  0
 24 26  1  0
 26 27  1  0
 27 28  2  0
 28 29  1  0
 28 30  1  0
 30 31  2  0
 31 32  1  0
 32 33  1  0
 33 34  1  0
 34 35  2  0
 35 36  1  0
 26 37  2  0
 37 38  1  0
 37 39  1  0
 39 40  2  0
 10 41  1  0
 41 42  1  0
  7 43  1  0
 43  5  1  0
 42  7  1  0
 40 11  1  0
 21 15  1  0
 40 23  1  0
 36 27  1  0
 36 32  2  0
M  END
>  <molecule_chembl_id>  (266) 
CHEMBL5209329

>  <canonical_smiles>  (266) 
C=CC(=O)N1CC2(CCN(c3nc(OC4CCN(C)CC4)nc4c(F)c(-c5c(C)ccc6[nH]ncc56)c(Cl)cc34)CC2)C1

>  <pchembl_value_mean>  (266) 
7.16

>  <inchi>  (266) 
InChI=1S/C32H35ClFN7O2/c1-4-25(42)41-17-32(18-41)9-13-40(14-10-32)30-21-15-23(33)27(26-19(2)5-6-24-22(26)16-35-38-24)28(34)29(21)36-31(37-30)43-20-7-11-39(3)12-8-20/h4-6,15-16,20H,1,7-14,17-18H2,2-3H3,(H,35,38)

$$$$

     RDKit          2D

 33 37  0  0  0  0  0  0  0  0999 V2000
    5.2500   -1.2990    0.0000 C   0  0  0  0  0  0  0  0  0  0  0  0
    3.7500   -1.2990    0.0000 C   0  0  0  0  0  0  0  0  0  0  0  0
    3.0000    0.0000    0.0000 C   0  0  0  0  0  0  0  0  0  0  0  0
    3.7500    1.2990    0.0000 O   0  0  0  0  0  0  0  0  0  0  0  0
    1.5000    0.0000    0.0000 N   0  0  0  0  0  0  0  0  0  0  0  0
    0.7500   -1.2990    0.0000 C   0  0  0  0  0  0  0  0  0  0  0  0
   -0.7500   -1.2990    0.0000 C   0  0  0  0  0  0  0  0  0  0  0  0
   -1.5000    0.0000    0.0000 N   0  0  0  0  0  0  0  0  0  0  0  0
   -3.0000    0.0000    0.0000 C   0  0  0  0  0  0  0  0  0  0  0  0
   -3.7500    1.2990    0.0000 C   0  0  0  0  0  0  0  0  0  0  0  0
   -5.2500    1.2990    0.0000 C   0  0  0  0  0  0  0  0  0  0  0  0
   -6.0000    0.0000    0.0000 N   0  0  0  0  0  0  0  0  0  0  0  0
   -5.2500   -1.2990    0.0000 C   0  0  0  0  0  0  0  0  0  0  0  0
   -6.0000   -2.5981    0.0000 C   0  0  0  0  0  0  0  0  0  0  0  0
   -7.5000   -2.5981    0.0000 O   0  0  0  0  0  0  0  0  0  0  0  0
   -8.2500   -1.2990    0.0000 C   0  0  0  0  0  0  0  0  0  0  0  0
   -5.2500   -3.8971    0.0000 C   0  0  0  0  0  0  0  0  0  0  0  0
   -6.0000   -5.1962    0.0000 C   0  0  0  0  0  0  0  0  0  0  0  0
   -7.5000   -5.1962    0.0000 C   0  0  0  0  0  0  0  0  0  0  0  0
   -8.2500   -3.8971    0.0000 O   0  0  0  0  0  0  0  0  0  0  0  0
   -8.2500   -6.4952    0.0000 C   0  0  0  0  0  0  0  0  0  0  0  0
   -7.5000   -7.7942    0.0000 C   0  0  0  0  0  0  0  0  0  0  0  0
   -6.0000   -7.7942    0.0000 C   0  0  0  0  0  0  0  0  0  0  0  0
   -5.2500   -6.4952    0.0000 C   0  0  0  0  0  0  0  0  0  0  0  0
   -3.7500   -6.4952    0.0000 F   0  0  0  0  0  0  0  0  0  0  0  0
   -3.7500   -3.8971    0.0000 C   0  0  0  0  0  0  0  0  0  0  0  0
   -3.0000   -5.1962    0.0000 Cl  0  0  0  0  0  0  0  0  0  0  0  0
   -3.0000   -2.5981    0.0000 C   0  0  0  0  0  0  0  0  0  0  0  0
   -3.7500   -1.2990    0.0000 C   0  0  0  0  0  0  0  0  0  0  0  0
   -3.0000    2.5981    0.0000 O   0  0  0  0  0  0  0  0  0  0  0  0
   -1.5000    2.5981    0.0000 C   0  0  0  0  0  0  0  0  0  0  0  0
   -0.7500    1.2990    0.0000 C   0  0  0  0  0  0  0  0  0  0  0  0
    0.7500    1.2990    0.0000 C   0  0  0  0  0  0  0  0  0  0  0  0
  1  2  2  0
  2  3  1  0
  3  4  2  0
  3  5  1  0
  5  6  1  0
  6  7  1  0
  7  8  1  0
  8  9  1  0
  9 10  2  0
 10 11  1  0
 11 12  2  0
 12 13  1  0
 13 14  2  0
 14 15  1  0
 15 16  1  0
 14 17  1  0
 17 18  1  0
 18 19  2  0
 19 20  1  0
 19 21  1  0
 21 22  2  0
 22 23  1  0
 23 24  2  0
 24 25  1  0
 17 26  2  0
 26 27  1  0
 26 28  1  0
 28 29  2  0
 10 30  1  0
 30 31  1  0
 32 31  1  1
 32 33  1  0
 33  5  1  0
 32  8  1  0
 29  9  1  0
 29 13  1  0
 24 18  1  0
M  END
>  <molecule_chembl_id>  (267) 
CHEMBL4572730

>  <canonical_smiles>  (267) 
C=CC(=O)N1CCN2c3c(cnc4c(OC)c(-c5c(O)cccc5F)c(Cl)cc34)OC[C@H]2C1

>  <pchembl_value_mean>  (267) 
7.16

>  <inchi>  (267) 
InChI=1S/C24H21ClFN3O4/c1-3-19(31)28-7-8-29-13(11-28)12-33-18-10-27-22-14(23(18)29)9-15(25)20(24(22)32-2)21-16(26)5-4-6-17(21)30/h3-6,9-10,13,30H,1,7-8,11-12H2,2H3/t13-/m1/s1

$$$$

     RDKit          2D

 39 43  0  0  0  0  0  0  0  0999 V2000
   -9.7500   -1.2990    0.0000 C   0  0  0  0  0  0  0  0  0  0  0  0
   -8.2500   -1.2990    0.0000 C   0  0  0  0  0  0  0  0  0  0  0  0
   -7.5000   -2.5981    0.0000 C   0  0  0  0  0  0  0  0  0  0  0  0
   -8.2500   -3.8971    0.0000 O   0  0  0  0  0  0  0  0  0  0  0  0
   -6.0000   -2.5981    0.0000 N   0  0  0  0  0  0  0  0  0  0  0  0
   -5.2500   -1.2990    0.0000 C   0  0  0  0  0  0  0  0  0  0  0  0
   -3.7500   -1.2990    0.0000 C   0  0  0  0  0  0  0  0  0  0  0  0
   -3.0000   -2.5981    0.0000 N   0  0  0  0  0  0  0  0  0  0  0  0
   -1.5000   -2.5981    0.0000 C   0  0  0  0  0  0  0  0  0  0  0  0
   -0.7500   -3.8971    0.0000 N   0  0  0  0  0  0  0  0  0  0  0  0
    0.7500   -3.8971    0.0000 C   0  0  0  0  0  0  0  0  0  0  0  0
    1.1772   -4.9037    0.0000 O   0  0  0  0  0  0  0  0  0  0  0  0
    1.5000   -2.5981    0.0000 N   0  0  0  0  0  0  0  0  0  0  0  0
    3.0000   -2.5981    0.0000 C   0  0  0  0  0  0  0  0  0  0  0  0
    3.7500   -1.2990    0.0000 C   0  0  0  0  0  0  0  0  0  0  0  0
    5.2500   -1.2990    0.0000 C   0  0  0  0  0  0  0  0  0  0  0  0
    6.0000   -2.5981    0.0000 C   0  0  0  0  0  0  0  0  0  0  0  0
    5.2500   -3.8971    0.0000 C   0  0  0  0  0  0  0  0  0  0  0  0
    3.7500   -3.8971    0.0000 C   0  0  0  0  0  0  0  0  0  0  0  0
    3.0000   -5.1962    0.0000 C   0  0  0  0  0  0  0  0  0  0  0  0
    3.7500   -6.4952    0.0000 C   0  0  0  0  0  0  0  0  0  0  0  0
    1.9147   -5.3294    0.0000 C   0  0  0  0  0  0  0  0  0  0  0  0
    0.7500   -1.2990    0.0000 C   0  0  0  0  0  0  0  0  0  0  0  0
    1.5000    0.0000    0.0000 N   0  0  0  0  0  0  0  0  0  0  0  0
    0.7500    1.2990    0.0000 C   0  0  0  0  0  0  0  0  0  0  0  0
    1.5000    2.5981    0.0000 C   0  0  0  0  0  0  0  0  0  0  0  0
    3.0000    2.5981    0.0000 C   0  0  0  0  0  0  0  0  0  0  0  0
    3.7500    1.2990    0.0000 O   0  0  0  0  0  0  0  0  0  0  0  0
    3.7500    3.8971    0.0000 C   0  0  0  0  0  0  0  0  0  0  0  0
    3.0000    5.1962    0.0000 C   0  0  0  0  0  0  0  0  0  0  0  0
    1.5000    5.1962    0.0000 C   0  0  0  0  0  0  0  0  0  0  0  0
    0.7500    3.8971    0.0000 C   0  0  0  0  0  0  0  0  0  0  0  0
   -0.7500    3.8971    0.0000 F   0  0  0  0  0  0  0  0  0  0  0  0
   -0.7500    1.2990    0.0000 C   0  0  0  0  0  0  0  0  0  0  0  0
   -1.5000    2.5981    0.0000 Cl  0  0  0  0  0  0  0  0  0  0  0  0
   -1.5000    0.0000    0.0000 C   0  0  0  0  0  0  0  0  0  0  0  0
   -0.7500   -1.2990    0.0000 C   0  0  0  0  0  0  0  0  0  0  0  0
   -3.7500   -3.8971    0.0000 C   0  0  0  0  0  0  0  0  0  0  0  0
   -5.2500   -3.8971    0.0000 C   0  0  0  0  0  0  0  0  0  0  0  0
  1  2  2  0
  2  3  1  0
  3  4  2  0
  3  5  1  0
  5  6  1  0
  6  7  1  0
  7  8  1  0
  8  9  1  0
  9 10  2  0
 10 11  1  0
 11 12  2  0
 11 13  1  0
 13 14  1  0
 14 15  2  0
 15 16  1  0
 16 17  2  0
 17 18  1  0
 18 19  2  0
 19 20  1  0
 20 21  1  0
 20 22  1  0
 13 23  1  0
 23 24  2  0
 24 25  1  0
 25 26  1  0
 26 27  2  0
 27 28  1  0
 27 29  1  0
 29 30  2  0
 30 31  1  0
 31 32  2  0
 32 33  1  0
 25 34  2  0
 34 35  1  0
 34 36  1  0
 36 37  2  0
  8 38  1  0
 38 39  1  0
 39  5  1  0
 37  9  1  0
 19 14  1  0
 37 23  1  0
 32 26  1  0
M  END
>  <molecule_chembl_id>  (268) 
CHEMBL4439782

>  <canonical_smiles>  (268) 
C=CC(=O)N1CCN(c2nc(=O)n(-c3ccccc3C(C)C)c3nc(-c4c(O)cccc4F)c(Cl)cc23)CC1

>  <pchembl_value_mean>  (268) 
7.16

>  <inchi>  (268) 
InChI=1S/C29H27ClFN5O3/c1-4-24(38)34-12-14-35(15-13-34)27-19-16-20(30)26(25-21(31)9-7-11-23(25)37)32-28(19)36(29(39)33-27)22-10-6-5-8-18(22)17(2)3/h4-11,16-17,37H,1,12-15H2,2-3H3

$$$$

     RDKit          2D

 40 44  0  0  0  0  0  0  0  0999 V2000
   -9.7500   -1.2990    0.0000 C   0  0  0  0  0  0  0  0  0  0  0  0
   -8.2500   -1.2990    0.0000 C   0  0  0  0  0  0  0  0  0  0  0  0
   -7.5000   -2.5981    0.0000 C   0  0  0  0  0  0  0  0  0  0  0  0
   -8.2500   -3.8971    0.0000 O   0  0  0  0  0  0  0  0  0  0  0  0
   -6.0000   -2.5981    0.0000 N   0  0  0  0  0  0  0  0  0  0  0  0
   -5.2500   -1.2990    0.0000 C   0  0  0  0  0  0  0  0  0  0  0  0
   -3.7500   -1.2990    0.0000 C   0  0  0  0  0  0  0  0  0  0  0  0
   -3.0000   -2.5981    0.0000 N   0  0  0  0  0  0  0  0  0  0  0  0
   -1.5000   -2.5981    0.0000 C   0  0  0  0  0  0  0  0  0  0  0  0
   -0.7500   -3.8971    0.0000 N   0  0  0  0  0  0  0  0  0  0  0  0
    0.7500   -3.8971    0.0000 C   0  0  0  0  0  0  0  0  0  0  0  0
    1.1772   -4.9037    0.0000 O   0  0  0  0  0  0  0  0  0  0  0  0
    1.5000   -2.5981    0.0000 N   0  0  0  0  0  0  0  0  0  0  0  0
    3.0000   -2.5981    0.0000 C   0  0  0  0  0  0  0  0  0  0  0  0
    3.7500   -1.2990    0.0000 N   0  0  0  0  0  0  0  0  0  0  0  0
    5.2500   -1.2990    0.0000 C   0  0  0  0  0  0  0  0  0  0  0  0
    6.0000   -2.5981    0.0000 C   0  0  0  0  0  0  0  0  0  0  0  0
    5.2500   -3.8971    0.0000 C   0  0  0  0  0  0  0  0  0  0  0  0
    3.7500   -3.8971    0.0000 C   0  0  0  0  0  0  0  0  0  0  0  0
    3.0000   -5.1962    0.0000 C   0  0  0  0  0  0  0  0  0  0  0  0
    3.7500   -6.4952    0.0000 C   0  0  0  0  0  0  0  0  0  0  0  0
    1.9147   -5.3294    0.0000 C   0  0  0  0  0  0  0  0  0  0  0  0
    0.7500   -1.2990    0.0000 C   0  0  0  0  0  0  0  0  0  0  0  0
    1.5000    0.0000    0.0000 N   0  0  0  0  0  0  0  0  0  0  0  0
    0.7500    1.2990    0.0000 C   0  0  0  0  0  0  0  0  0  0  0  0
    1.5000    2.5981    0.0000 C   0  0  0  0  0  0  0  0  0  0  0  0
    3.0000    2.5981    0.0000 C   0  0  0  0  0  0  0  0  0  0  0  0
    3.7500    1.2990    0.0000 O   0  0  0  0  0  0  0  0  0  0  0  0
    3.7500    3.8971    0.0000 C   0  0  0  0  0  0  0  0  0  0  0  0
    3.0000    5.1962    0.0000 C   0  0  0  0  0  0  0  0  0  0  0  0
    1.5000    5.1962    0.0000 C   0  0  0  0  0  0  0  0  0  0  0  0
    0.7500    3.8971    0.0000 C   0  0  0  0  0  0  0  0  0  0  0  0
   -0.7500    3.8971    0.0000 F   0  0  0  0  0  0  0  0  0  0  0  0
   -0.7500    1.2990    0.0000 C   0  0  0  0  0  0  0  0  0  0  0  0
   -1.5000    2.5981    0.0000 Cl  0  0  0  0  0  0  0  0  0  0  0  0
   -1.5000    0.0000    0.0000 C   0  0  0  0  0  0  0  0  0  0  0  0
   -0.7500   -1.2990    0.0000 C   0  0  0  0  0  0  0  0  0  0  0  0
   -3.7500   -3.8971    0.0000 C   0  0  0  0  0  0  0  0  0  0  0  0
   -3.0000   -5.1962    0.0000 C   0  0  0  0  0  0  0  0  0  0  0  0
   -5.2500   -3.8971    0.0000 C   0  0  0  0  0  0  0  0  0  0  0  0
  1  2  2  0
  2  3  1  0
  3  4  2  0
  3  5  1  0
  5  6  1  0
  6  7  1  0
  7  8  1  0
  8  9  1  0
  9 10  2  0
 10 11  1  0
 11 12  2  0
 11 13  1  0
 13 14  1  0
 14 15  2  0
 15 16  1  0
 16 17  2  0
 17 18  1  0
 18 19  2  0
 19 20  1  0
 20 21  1  0
 20 22  1  0
 13 23  1  0
 23 24  2  0
 24 25  1  0
 25 26  1  0
 26 27  2  0
 27 28  1  0
 27 29  1  0
 29 30  2  0
 30 31  1  0
 31 32  2  0
 32 33  1  0
 25 34  2  0
 34 35  1  0
 34 36  1  0
 36 37  2  0
  8 38  1  0
 38 39  1  1
 38 40  1  0
 40  5  1  0
 37  9  1  0
 19 14  1  0
 37 23  1  0
 32 26  1  0
M  END
>  <molecule_chembl_id>  (269) 
CHEMBL4467518

>  <canonical_smiles>  (269) 
C=CC(=O)N1CCN(c2nc(=O)n(-c3ncccc3C(C)C)c3nc(-c4c(O)cccc4F)c(Cl)cc23)[C@@H](C)C1

>  <pchembl_value_mean>  (269) 
7.18

>  <inchi>  (269) 
InChI=1S/C29H28ClFN6O3/c1-5-23(39)35-12-13-36(17(4)15-35)27-19-14-20(30)25(24-21(31)9-6-10-22(24)38)33-28(19)37(29(40)34-27)26-18(16(2)3)8-7-11-32-26/h5-11,14,16-17,38H,1,12-13,15H2,2-4H3/t17-/m0/s1

$$$$

     RDKit          2D

 43 48  0  0  0  0  0  0  0  0999 V2000
    9.7500   -3.8971    0.0000 C   0  0  0  0  0  0  0  0  0  0  0  0
    8.2500   -3.8971    0.0000 C   0  0  0  0  0  0  0  0  0  0  0  0
    7.5000   -2.5981    0.0000 C   0  0  0  0  0  0  0  0  0  0  0  0
    8.2500   -1.2990    0.0000 O   0  0  0  0  0  0  0  0  0  0  0  0
    6.0000   -2.5981    0.0000 N   0  0  0  0  0  0  0  0  0  0  0  0
    5.2500   -3.8971    0.0000 C   0  0  0  0  0  0  0  0  0  0  0  0
    3.7500   -3.8971    0.0000 C   0  0  0  0  0  0  0  0  0  0  0  0
    3.0000   -2.5981    0.0000 N   0  0  0  0  0  0  0  0  0  0  0  0
    1.5000   -2.5981    0.0000 C   0  0  0  0  0  0  0  0  0  0  0  0
    0.7500   -3.8971    0.0000 N   0  0  0  0  0  0  0  0  0  0  0  0
   -0.7500   -3.8971    0.0000 C   0  0  0  0  0  0  0  0  0  0  0  0
   -1.5000   -5.1962    0.0000 O   0  0  0  0  0  0  0  0  0  0  0  0
   -3.0000   -5.1962    0.0000 C   0  0  0  0  0  0  0  0  0  0  0  0
   -3.7500   -6.4952    0.0000 C   0  0  0  0  0  0  0  0  0  0  0  0
   -3.1399   -7.8655    0.0000 C   0  0  0  0  0  0  0  0  0  0  0  0
   -4.2546   -8.8692    0.0000 C   0  0  0  0  0  0  0  0  0  0  0  0
   -5.5537   -8.1192    0.0000 C   0  0  0  0  0  0  0  0  0  0  0  0
   -5.2418   -6.6520    0.0000 N   0  0  0  0  0  0  0  0  0  0  0  0
   -6.2455   -5.5373    0.0000 C   0  0  0  0  0  0  0  0  0  0  0  0
   -1.5000   -2.5981    0.0000 N   0  0  0  0  0  0  0  0  0  0  0  0
   -0.7500   -1.2990    0.0000 C   0  0  0  0  0  0  0  0  0  0  0  0
    0.7500   -1.2990    0.0000 C   0  0  0  0  0  0  0  0  0  0  0  0
    1.5000    0.0000    0.0000 C   0  0  0  0  0  0  0  0  0  0  0  0
    0.7500    1.2990    0.0000 C   0  0  0  0  0  0  0  0  0  0  0  0
   -0.7500    1.2990    0.0000 N   0  0  0  0  0  0  0  0  0  0  0  0
   -1.5000    2.5981    0.0000 C   0  0  0  0  0  0  0  0  0  0  0  0
   -3.0000    2.5981    0.0000 C   0  0  0  0  0  0  0  0  0  0  0  0
   -3.7500    3.8971    0.0000 C   0  0  0  0  0  0  0  0  0  0  0  0
   -3.0000    5.1962    0.0000 C   0  0  0  0  0  0  0  0  0  0  0  0
   -1.5000    5.1962    0.0000 C   0  0  0  0  0  0  0  0  0  0  0  0
   -0.7500    6.4952    0.0000 C   0  0  0  0  0  0  0  0  0  0  0  0
    0.7500    6.4952    0.0000 C   0  0  0  0  0  0  0  0  0  0  0  0
    1.5000    5.1962    0.0000 C   0  0  0  0  0  0  0  0  0  0  0  0
    0.7500    3.8971    0.0000 C   0  0  0  0  0  0  0  0  0  0  0  0
    1.5000    2.5981    0.0000 C   0  0  0  0  0  0  0  0  0  0  0  0
    2.2500    1.2990    0.0000 N   0  0  0  0  0  0  0  0  0  0  0  0
   -0.7500    3.8971    0.0000 C   0  0  0  0  0  0  0  0  0  0  0  0
   -1.5000    0.0000    0.0000 C   0  0  0  0  0  0  0  0  0  0  0  0
    3.7500   -1.2990    0.0000 C   0  0  0  0  0  0  0  0  0  0  0  0
    5.2500   -1.2990    0.0000 C   0  0  0  0  0  0  0  0  0  0  0  0
    6.0000   -0.0000    0.0000 C   0  0  0  0  0  0  0  0  0  0  0  0
    5.2500    1.2990    0.0000 C   0  0  0  0  0  0  0  0  0  0  0  0
    4.5000    2.5981    0.0000 N   0  0  0  0  0  0  0  0  0  0  0  0
  1  2  2  0
  2  3  1  0
  3  4  2  0
  3  5  1  0
  5  6  1  0
  6  7  1  0
  7  8  1  0
  8  9  1  0
  9 10  2  0
 10 11  1  0
 11 12  1  0
 12 13  1  0
 14 13  1  6
 14 15  1  0
 15 16  1  0
 16 17  1  0
 17 18  1  0
 18 19  1  0
 11 20  2  0
 20 21  1  0
 21 22  2  0
 22 23  1  0
 23 24  1  0
 24 25  1  0
 25 26  1  0
 26 27  2  0
 27 28  1  0
 28 29  2  0
 29 30  1  0
 30 31  2  0
 31 32  1  0
 32 33  2  0
 33 34  1  0
 34 35  1  0
 35 36  3  0
 34 37  2  0
 25 38  1  0
  8 39  1  0
 39 40  1  0
 40 41  1  6
 41 42  1  0
 42 43  3  0
 40  5  1  0
 22  9  1  0
 37 26  1  0
 18 14  1  0
 38 21  1  0
 37 30  1  0
M  END
>  <molecule_chembl_id>  (270) 
CHEMBL4640234

>  <canonical_smiles>  (270) 
C=CC(=O)N1CCN(c2nc(OC[C@@H]3CCCN3C)nc3c2CCN(c2cccc4cccc(C#N)c24)C3)C[C@@H]1CC#N

>  <pchembl_value_mean>  (270) 
7.19

>  <inchi>  (270) 
InChI=1S/C33H36N8O2/c1-3-30(42)41-18-17-40(20-25(41)12-14-34)32-27-13-16-39(29-11-5-8-23-7-4-9-24(19-35)31(23)29)21-28(27)36-33(37-32)43-22-26-10-6-15-38(26)2/h3-5,7-9,11,25-26H,1,6,10,12-13,15-18,20-22H2,2H3/t25-,26-/m0/s1

$$$$

     RDKit          2D

 41 48  0  0  0  0  0  0  0  0999 V2000
   -1.5000   -5.1962    0.0000 O   0  0  0  0  0  0  0  0  0  0  0  0
   -0.7500   -3.8971    0.0000 C   0  0  0  0  0  0  0  0  0  0  0  0
    0.7500   -3.8971    0.0000 C   0  0  0  0  0  0  0  0  0  0  0  0
    1.5000   -2.5981    0.0000 C   0  0  0  0  0  0  0  0  0  0  0  0
    3.0000   -2.5981    0.0000 C   0  0  0  0  0  0  0  0  0  0  0  0
    3.7500   -1.2990    0.0000 N   0  0  0  0  0  0  0  0  0  0  0  0
    5.2500   -1.2990    0.0000 C   0  0  0  0  0  0  0  0  0  0  0  0
    6.0000   -2.5981    0.0000 C   0  0  0  0  0  0  0  0  0  0  0  0
    7.5000   -2.5981    0.0000 C   0  0  0  0  0  0  0  0  0  0  0  0
    8.2500   -1.2990    0.0000 N   0  0  0  0  0  0  0  0  0  0  0  0
    9.7500   -1.2990    0.0000 C   0  0  0  0  0  0  0  0  0  0  0  0
   10.5000   -0.0000    0.0000 C   0  0  0  0  0  0  0  0  0  0  0  0
   10.8119    1.4672    0.0000 C   0  0  0  0  0  0  0  0  0  0  0  0
    9.5128    2.2172    0.0000 C   0  0  0  0  0  0  0  0  0  0  0  0
    8.3981    1.2135    0.0000 C   0  0  0  0  0  0  0  0  0  0  0  0
    7.5000    0.0000    0.0000 C   0  0  0  0  0  0  0  0  0  0  0  0
    9.0082   -0.1568    0.0000 N   0  0  0  0  0  0  0  0  0  0  0  0
    8.2500   -3.8971    0.0000 N   0  0  0  0  0  0  0  0  0  0  0  0
    7.5000   -5.1962    0.0000 C   0  0  0  0  0  0  0  0  0  0  0  0
    8.2500   -6.4952    0.0000 O   0  0  0  0  0  0  0  0  0  0  0  0
    7.5000   -7.7942    0.0000 C   0  0  0  0  0  0  0  0  0  0  0  0
    8.2500   -9.0933    0.0000 C   0  0  0  0  0  0  0  0  0  0  0  0
    9.2537   -7.9785    0.0000 C   0  0  0  0  0  0  0  0  0  0  0  0
   10.6240   -8.5887    0.0000 C   0  0  0  0  0  0  0  0  0  0  0  0
   10.4672  -10.0804    0.0000 C   0  0  0  0  0  0  0  0  0  0  0  0
    9.0000  -10.3923    0.0000 N   0  0  0  0  0  0  0  0  0  0  0  0
    7.9963  -11.5070    0.0000 C   0  0  0  0  0  0  0  0  0  0  0  0
    6.6260  -10.8969    0.0000 C   0  0  0  0  0  0  0  0  0  0  0  0
    5.3269  -11.6469    0.0000 F   0  0  0  0  0  0  0  0  0  0  0  0
    6.7828   -9.4051    0.0000 C   0  0  0  0  0  0  0  0  0  0  0  0
    6.0000   -5.1962    0.0000 N   0  0  0  0  0  0  0  0  0  0  0  0
    5.2500   -3.8971    0.0000 C   0  0  0  0  0  0  0  0  0  0  0  0
    3.7500   -3.8971    0.0000 C   0  0  0  0  0  0  0  0  0  0  0  0
    3.0000   -5.1962    0.0000 F   0  0  0  0  0  0  0  0  0  0  0  0
    0.7500   -1.2990    0.0000 C   0  0  0  0  0  0  0  0  0  0  0  0
    1.5000    0.0000    0.0000 C   0  0  0  0  0  0  0  0  0  0  0  0
    0.7500    1.2990    0.0000 C   0  0  0  0  0  0  0  0  0  0  0  0
   -0.7500    1.2990    0.0000 C   0  0  0  0  0  0  0  0  0  0  0  0
   -1.5000    0.0000    0.0000 C   0  0  0  0  0  0  0  0  0  0  0  0
   -0.7500   -1.2990    0.0000 C   0  0  0  0  0  0  0  0  0  0  0  0
   -1.5000   -2.5981    0.0000 C   0  0  0  0  0  0  0  0  0  0  0  0
  1  2  1  0
  2  3  2  0
  3  4  1  0
  4  5  1  0
  5  6  2  0
  6  7  1  0
  7  8  2  0
  8  9  1  0
  9 10  1  0
 10 11  1  0
 12 11  1  6
 12 13  1  0
 13 14  1  0
 15 14  1  6
 15 16  1  0
 15 17  1  0
  9 18  2  0
 18 19  1  0
 19 20  1  0
 20 21  1  0
 22 21  1  6
 22 23  1  0
 23 24  1  0
 24 25  1  0
 25 26  1  0
 26 27  1  0
 27 28  1  0
 28 29  1  1
 28 30  1  0
 19 31  2  0
 31 32  1  0
 32 33  2  0
 33 34  1  0
  4 35  2  0
 35 36  1  0
 36 37  2  0
 37 38  1  0
 38 39  2  0
 39 40  1  0
 40 41  2  0
 41  2  1  0
 33  5  1  0
 40 35  1  0
 32  8  1  0
 16 10  1  0
 26 22  1  0
 17 12  1  0
 30 22  1  0
M  END
>  <molecule_chembl_id>  (271) 
CHEMBL5093274

>  <canonical_smiles>  (271) 
Oc1cc(-c2ncc3c(N4C[C@H]5CC[C@@H](C4)N5)nc(OC[C@]45CCCN4C[C@@H](F)C5)nc3c2F)c2ccccc2c1

>  <pchembl_value_mean>  (271) 
7.19

>  <inchi>  (271) 
InChI=1S/C31H32F2N6O2/c32-19-12-31(8-3-9-39(31)14-19)17-41-30-36-28-25(29(37-30)38-15-20-6-7-21(16-38)35-20)13-34-27(26(28)33)24-11-22(40)10-18-4-1-2-5-23(18)24/h1-2,4-5,10-11,13,19-21,35,40H,3,6-9,12,14-17H2/t19-,20-,21+,31+/m0/s1

$$$$

     RDKit          2D

 41 45  0  0  0  0  0  0  0  0999 V2000
   -9.7500   -1.2990    0.0000 C   0  0  0  0  0  0  0  0  0  0  0  0
   -8.2500   -1.2990    0.0000 C   0  0  0  0  0  0  0  0  0  0  0  0
   -7.5000   -2.5981    0.0000 C   0  0  0  0  0  0  0  0  0  0  0  0
   -8.2500   -3.8971    0.0000 O   0  0  0  0  0  0  0  0  0  0  0  0
   -6.0000   -2.5981    0.0000 N   0  0  0  0  0  0  0  0  0  0  0  0
   -5.2500   -1.2990    0.0000 C   0  0  0  0  0  0  0  0  0  0  0  0
   -3.7500   -1.2990    0.0000 C   0  0  0  0  0  0  0  0  0  0  0  0
   -3.0000   -2.5981    0.0000 N   0  0  0  0  0  0  0  0  0  0  0  0
   -1.5000   -2.5981    0.0000 C   0  0  0  0  0  0  0  0  0  0  0  0
   -0.7500   -3.8971    0.0000 N   0  0  0  0  0  0  0  0  0  0  0  0
    0.7500   -3.8971    0.0000 C   0  0  0  0  0  0  0  0  0  0  0  0
    1.1772   -4.9037    0.0000 O   0  0  0  0  0  0  0  0  0  0  0  0
    1.5000   -2.5981    0.0000 N   0  0  0  0  0  0  0  0  0  0  0  0
    3.0000   -2.5981    0.0000 C   0  0  0  0  0  0  0  0  0  0  0  0
    3.7500   -3.8971    0.0000 C   0  0  0  0  0  0  0  0  0  0  0  0
    3.0000   -5.1962    0.0000 C   0  0  0  0  0  0  0  0  0  0  0  0
    3.7500   -6.4952    0.0000 C   0  0  0  0  0  0  0  0  0  0  0  0
    1.9147   -5.3294    0.0000 C   0  0  0  0  0  0  0  0  0  0  0  0
    5.2500   -3.8971    0.0000 C   0  0  0  0  0  0  0  0  0  0  0  0
    6.0000   -2.5981    0.0000 C   0  0  0  0  0  0  0  0  0  0  0  0
    5.2500   -1.2990    0.0000 N   0  0  0  0  0  0  0  0  0  0  0  0
    3.7500   -1.2990    0.0000 C   0  0  0  0  0  0  0  0  0  0  0  0
    3.0000   -0.0000    0.0000 C   0  0  0  0  0  0  0  0  0  0  0  0
    0.7500   -1.2990    0.0000 C   0  0  0  0  0  0  0  0  0  0  0  0
    1.5000    0.0000    0.0000 N   0  0  0  0  0  0  0  0  0  0  0  0
    0.7500    1.2990    0.0000 C   0  0  0  0  0  0  0  0  0  0  0  0
    1.5000    2.5981    0.0000 C   0  0  0  0  0  0  0  0  0  0  0  0
    3.0000    2.5981    0.0000 C   0  0  0  0  0  0  0  0  0  0  0  0
    3.7500    1.2990    0.0000 O   0  0  0  0  0  0  0  0  0  0  0  0
    3.7500    3.8971    0.0000 C   0  0  0  0  0  0  0  0  0  0  0  0
    3.0000    5.1962    0.0000 C   0  0  0  0  0  0  0  0  0  0  0  0
    1.5000    5.1962    0.0000 C   0  0  0  0  0  0  0  0  0  0  0  0
    0.7500    3.8971    0.0000 C   0  0  0  0  0  0  0  0  0  0  0  0
   -0.7500    3.8971    0.0000 F   0  0  0  0  0  0  0  0  0  0  0  0
   -0.7500    1.2990    0.0000 C   0  0  0  0  0  0  0  0  0  0  0  0
   -1.5000    2.5981    0.0000 Cl  0  0  0  0  0  0  0  0  0  0  0  0
   -1.5000    0.0000    0.0000 C   0  0  0  0  0  0  0  0  0  0  0  0
   -0.7500   -1.2990    0.0000 C   0  0  0  0  0  0  0  0  0  0  0  0
   -3.7500   -3.8971    0.0000 C   0  0  0  0  0  0  0  0  0  0  0  0
   -3.0000   -5.1962    0.0000 C   0  0  0  0  0  0  0  0  0  0  0  0
   -5.2500   -3.8971    0.0000 C   0  0  0  0  0  0  0  0  0  0  0  0
  1  2  2  0
  2  3  1  0
  3  4  2  0
  3  5  1  0
  5  6  1  0
  6  7  1  0
  7  8  1  0
  8  9  1  0
  9 10  2  0
 10 11  1  0
 11 12  2  0
 11 13  1  0
 13 14  1  0
 14 15  2  0
 15 16  1  0
 16 17  1  0
 16 18  1  0
 15 19  1  0
 19 20  2  0
 20 21  1  0
 21 22  2  0
 22 23  1  0
 13 24  1  0
 24 25  2  0
 25 26  1  0
 26 27  1  0
 27 28  2  0
 28 29  1  0
 28 30  1  0
 30 31  2  0
 31 32  1  0
 32 33  2  0
 33 34  1  0
 26 35  2  0
 35 36  1  0
 35 37  1  0
 37 38  2  0
  8 39  1  0
 39 40  1  1
 39 41  1  0
 41  5  1  0
 38  9  1  0
 22 14  1  0
 38 24  1  0
 33 27  1  0
M  END
>  <molecule_chembl_id>  (272) 
CHEMBL4578214

>  <canonical_smiles>  (272) 
C=CC(=O)N1CCN(c2nc(=O)n(-c3c(C(C)C)ccnc3C)c3nc(-c4c(O)cccc4F)c(Cl)cc23)[C@@H](C)C1

>  <pchembl_value_mean>  (272) 
7.19

>  <inchi>  (272) 
InChI=1S/C30H30ClFN6O3/c1-6-24(40)36-12-13-37(17(4)15-36)28-20-14-21(31)26(25-22(32)8-7-9-23(25)39)34-29(20)38(30(41)35-28)27-18(5)33-11-10-19(27)16(2)3/h6-11,14,16-17,39H,1,12-13,15H2,2-5H3/t17-/m0/s1

$$$$

     RDKit          2D

 38 42  0  0  0  0  0  0  0  0999 V2000
    3.7500   -1.2990    0.0000 C   0  0  0  0  0  0  0  0  0  0  0  0
    3.0000    0.0000    0.0000 N   0  0  0  0  0  0  0  0  0  0  0  0
    1.5000    0.0000    0.0000 C   0  0  0  0  0  0  0  0  0  0  0  0
    0.7500   -1.2990    0.0000 C   0  0  0  0  0  0  0  0  0  0  0  0
   -0.7500   -1.2990    0.0000 C   0  0  0  0  0  0  0  0  0  0  0  0
   -1.5000    0.0000    0.0000 C   0  0  0  0  0  0  0  0  0  0  0  0
   -0.7500    1.2990    0.0000 C   0  0  0  0  0  0  0  0  0  0  0  0
    0.7500    1.2990    0.0000 N   0  0  0  0  0  0  0  0  0  0  0  0
   -3.0000    0.0000    0.0000 C   0  0  0  0  0  0  0  0  0  0  0  0
   -3.7500   -1.2990    0.0000 C   0  0  0  0  0  0  0  0  0  0  0  0
   -5.2500   -1.2990    0.0000 C   0  0  0  0  0  0  0  0  0  0  0  0
   -6.0000    0.0000    0.0000 C   0  0  0  0  0  0  0  0  0  0  0  0
   -7.5000    0.0000    0.0000 C   0  0  0  0  0  0  0  0  0  0  0  0
   -8.2500   -1.2990    0.0000 C   0  0  0  0  0  0  0  0  0  0  0  0
   -9.7500   -1.2990    0.0000 F   0  0  0  0  0  0  0  0  0  0  0  0
   -7.5000   -2.5981    0.0000 C   0  0  0  0  0  0  0  0  0  0  0  0
   -8.2500   -3.8971    0.0000 N   0  0  0  0  0  0  0  0  0  0  0  0
   -7.5000   -5.1962    0.0000 C   0  0  0  0  0  0  0  0  0  0  0  0
   -6.0000   -5.1962    0.0000 O   0  0  0  0  0  0  0  0  0  0  0  0
   -8.2500   -6.4952    0.0000 N   0  0  0  0  0  0  0  0  0  0  0  0
   -7.5000   -7.7942    0.0000 C   0  0  0  0  0  0  0  0  0  0  0  0
   -6.0082   -7.9510    0.0000 C   0  0  0  0  0  0  0  0  0  0  0  0
   -5.6963   -9.4182    0.0000 C   0  0  0  0  0  0  0  0  0  0  0  0
   -4.3260  -10.0283    0.0000 C   0  0  0  0  0  0  0  0  0  0  0  0
   -4.9361  -11.3987    0.0000 C   0  0  0  0  0  0  0  0  0  0  0  0
   -3.7159   -8.6580    0.0000 C   0  0  0  0  0  0  0  0  0  0  0  0
   -2.9557  -10.6385    0.0000 C   0  0  0  0  0  0  0  0  0  0  0  0
   -6.9954  -10.1682    0.0000 N   0  0  0  0  0  0  0  0  0  0  0  0
   -8.1101   -9.1645    0.0000 O   0  0  0  0  0  0  0  0  0  0  0  0
   -6.0000   -2.5981    0.0000 C   0  0  0  0  0  0  0  0  0  0  0  0
   -3.0000   -2.5981    0.0000 C   0  0  0  0  0  0  0  0  0  0  0  0
   -3.7500   -3.8971    0.0000 O   0  0  0  0  0  0  0  0  0  0  0  0
   -1.5000   -2.5981    0.0000 N   0  0  0  0  0  0  0  0  0  0  0  0
   -0.7500   -3.8971    0.0000 C   0  0  0  0  0  0  0  0  0  0  0  0
    0.7418   -4.0539    0.0000 C   0  0  0  0  0  0  0  0  0  0  0  0
    1.0537   -5.5211    0.0000 C   0  0  0  0  0  0  0  0  0  0  0  0
   -0.2454   -6.2711    0.0000 O   0  0  0  0  0  0  0  0  0  0  0  0
   -1.3601   -5.2674    0.0000 C   0  0  0  0  0  0  0  0  0  0  0  0
  1  2  1  0
  2  3  1  0
  3  4  2  0
  4  5  1  0
  5  6  2  0
  6  7  1  0
  7  8  2  0
  6  9  1  0
  9 10  2  0
 10 11  1  0
 11 12  2  0
 12 13  1  0
 13 14  2  0
 14 15  1  0
 14 16  1  0
 16 17  1  0
 17 18  1  0
 18 19  2  0
 18 20  1  0
 20 21  1  0
 21 22  2  0
 22 23  1  0
 23 24  1  0
 24 25  1  0
 24 26  1  0
 24 27  1  0
 23 28  2  0
 28 29  1  0
 16 30  2  0
 10 31  1  0
 31 32  2  0
 31 33  1  0
 34 33  1  1
 34 35  1  0
 35 36  1  0
 36 37  1  0
 37 38  1  0
  8  3  1  0
 30 11  1  0
 38 34  1  0
 33  5  1  0
 29 21  1  0
M  END
>  <molecule_chembl_id>  (273) 
CHEMBL3577114

>  <canonical_smiles>  (273) 
CNc1cc2c(cn1)cc(-c1ccc(F)c(NC(=O)Nc3cc(C(C)(C)C)no3)c1)c(=O)n2[C@H]1CCOC1

>  <pchembl_value_mean>  (273) 
7.24

>  <inchi>  (273) 
InChI=1S/C27H29FN6O4/c1-27(2,3)22-12-24(38-33-22)32-26(36)31-20-10-15(5-6-19(20)28)18-9-16-13-30-23(29-4)11-21(16)34(25(18)35)17-7-8-37-14-17/h5-6,9-13,17H,7-8,14H2,1-4H3,(H,29,30)(H2,31,32,36)/t17-/m0/s1

$$$$

     RDKit          2D

 39 43  0  0  0  0  0  0  0  0999 V2000
   -9.7500   -1.2990    0.0000 C   0  0  0  0  0  0  0  0  0  0  0  0
   -8.2500   -1.2990    0.0000 C   0  0  0  0  0  0  0  0  0  0  0  0
   -7.5000   -2.5981    0.0000 C   0  0  0  0  0  0  0  0  0  0  0  0
   -8.2500   -3.8971    0.0000 O   0  0  0  0  0  0  0  0  0  0  0  0
   -6.0000   -2.5981    0.0000 N   0  0  0  0  0  0  0  0  0  0  0  0
   -5.2500   -1.2990    0.0000 C   0  0  0  0  0  0  0  0  0  0  0  0
   -3.7500   -1.2990    0.0000 C   0  0  0  0  0  0  0  0  0  0  0  0
   -3.0000   -2.5981    0.0000 N   0  0  0  0  0  0  0  0  0  0  0  0
   -1.5000   -2.5981    0.0000 C   0  0  0  0  0  0  0  0  0  0  0  0
   -0.7500   -3.8971    0.0000 N   0  0  0  0  0  0  0  0  0  0  0  0
    0.7500   -3.8971    0.0000 C   0  0  0  0  0  0  0  0  0  0  0  0
    1.1772   -4.9037    0.0000 O   0  0  0  0  0  0  0  0  0  0  0  0
    1.5000   -2.5981    0.0000 N   0  0  0  0  0  0  0  0  0  0  0  0
    3.0000   -2.5981    0.0000 C   0  0  0  0  0  0  0  0  0  0  0  0
    3.7500   -1.2990    0.0000 C   0  0  0  0  0  0  0  0  0  0  0  0
    5.2500   -1.2990    0.0000 C   0  0  0  0  0  0  0  0  0  0  0  0
    6.0000   -2.5981    0.0000 C   0  0  0  0  0  0  0  0  0  0  0  0
    5.2500   -3.8971    0.0000 C   0  0  0  0  0  0  0  0  0  0  0  0
    3.7500   -3.8971    0.0000 C   0  0  0  0  0  0  0  0  0  0  0  0
    3.0000   -5.1962    0.0000 C   0  0  0  0  0  0  0  0  0  0  0  0
    3.7500   -6.4952    0.0000 C   0  0  0  0  0  0  0  0  0  0  0  0
    1.9147   -5.3294    0.0000 C   0  0  0  0  0  0  0  0  0  0  0  0
    0.7500   -1.2990    0.0000 C   0  0  0  0  0  0  0  0  0  0  0  0
    1.5000    0.0000    0.0000 N   0  0  0  0  0  0  0  0  0  0  0  0
    0.7500    1.2990    0.0000 C   0  0  0  0  0  0  0  0  0  0  0  0
    1.5000    2.5981    0.0000 C   0  0  0  0  0  0  0  0  0  0  0  0
    3.0000    2.5981    0.0000 C   0  0  0  0  0  0  0  0  0  0  0  0
    3.7500    3.8971    0.0000 C   0  0  0  0  0  0  0  0  0  0  0  0
    3.0000    5.1962    0.0000 C   0  0  0  0  0  0  0  0  0  0  0  0
    1.5000    5.1962    0.0000 C   0  0  0  0  0  0  0  0  0  0  0  0
    0.7500    3.8971    0.0000 C   0  0  0  0  0  0  0  0  0  0  0  0
   -0.7500    3.8971    0.0000 Cl  0  0  0  0  0  0  0  0  0  0  0  0
   -0.7500    1.2990    0.0000 C   0  0  0  0  0  0  0  0  0  0  0  0
   -1.5000    2.5981    0.0000 Cl  0  0  0  0  0  0  0  0  0  0  0  0
   -1.5000    0.0000    0.0000 C   0  0  0  0  0  0  0  0  0  0  0  0
   -0.7500   -1.2990    0.0000 C   0  0  0  0  0  0  0  0  0  0  0  0
   -3.7500   -3.8971    0.0000 C   0  0  0  0  0  0  0  0  0  0  0  0
   -3.0000   -5.1962    0.0000 C   0  0  0  0  0  0  0  0  0  0  0  0
   -5.2500   -3.8971    0.0000 C   0  0  0  0  0  0  0  0  0  0  0  0
  1  2  2  0
  2  3  1  0
  3  4  2  0
  3  5  1  0
  5  6  1  0
  6  7  1  0
  7  8  1  0
  8  9  1  0
  9 10  2  0
 10 11  1  0
 11 12  2  0
 11 13  1  0
 13 14  1  0
 14 15  2  0
 15 16  1  0
 16 17  2  0
 17 18  1  0
 18 19  2  0
 19 20  1  0
 20 21  1  0
 20 22  1  0
 13 23  1  0
 23 24  2  0
 24 25  1  0
 25 26  1  0
 26 27  2  0
 27 28  1  0
 28 29  2  0
 29 30  1  0
 30 31  2  0
 31 32  1  0
 25 33  2  0
 33 34  1  0
 33 35  1  0
 35 36  2  0
  8 37  1  0
 37 38  1  1
 37 39  1  0
 39  5  1  0
 36  9  1  0
 19 14  1  0
 36 23  1  0
 31 26  1  0
M  END
>  <molecule_chembl_id>  (274) 
CHEMBL4591772

>  <canonical_smiles>  (274) 
C=CC(=O)N1CCN(c2nc(=O)n(-c3ccccc3C(C)C)c3nc(-c4ccccc4Cl)c(Cl)cc23)[C@@H](C)C1

>  <pchembl_value_mean>  (274) 
7.25

>  <inchi>  (274) 
InChI=1S/C30H29Cl2N5O2/c1-5-26(38)35-14-15-36(19(4)17-35)28-22-16-24(32)27(21-11-6-8-12-23(21)31)33-29(22)37(30(39)34-28)25-13-9-7-10-20(25)18(2)3/h5-13,16,18-19H,1,14-15,17H2,2-4H3/t19-/m0/s1

$$$$

     RDKit          2D

 40 44  0  0  0  0  0  0  0  0999 V2000
   -9.7500   -1.2990    0.0000 C   0  0  0  0  0  0  0  0  0  0  0  0
   -8.2500   -1.2990    0.0000 C   0  0  0  0  0  0  0  0  0  0  0  0
   -7.5000   -2.5981    0.0000 C   0  0  0  0  0  0  0  0  0  0  0  0
   -8.2500   -3.8971    0.0000 O   0  0  0  0  0  0  0  0  0  0  0  0
   -6.0000   -2.5981    0.0000 N   0  0  0  0  0  0  0  0  0  0  0  0
   -5.2500   -1.2990    0.0000 C   0  0  0  0  0  0  0  0  0  0  0  0
   -3.7500   -1.2990    0.0000 C   0  0  0  0  0  0  0  0  0  0  0  0
   -3.0000   -2.5981    0.0000 N   0  0  0  0  0  0  0  0  0  0  0  0
   -1.5000   -2.5981    0.0000 C   0  0  0  0  0  0  0  0  0  0  0  0
   -0.7500   -3.8971    0.0000 N   0  0  0  0  0  0  0  0  0  0  0  0
    0.7500   -3.8971    0.0000 C   0  0  0  0  0  0  0  0  0  0  0  0
    1.5000   -5.1962    0.0000 O   0  0  0  0  0  0  0  0  0  0  0  0
    1.5000   -2.5981    0.0000 N   0  0  0  0  0  0  0  0  0  0  0  0
    3.0000   -2.5981    0.0000 C   0  0  0  0  0  0  0  0  0  0  0  0
    3.7500   -1.2990    0.0000 C   0  0  0  0  0  0  0  0  0  0  0  0
    3.0000   -0.0000    0.0000 C   0  0  0  0  0  0  0  0  0  0  0  0
    5.2500   -1.2990    0.0000 C   0  0  0  0  0  0  0  0  0  0  0  0
    6.0000   -2.5981    0.0000 C   0  0  0  0  0  0  0  0  0  0  0  0
    5.2500   -3.8971    0.0000 C   0  0  0  0  0  0  0  0  0  0  0  0
    3.7500   -3.8971    0.0000 C   0  0  0  0  0  0  0  0  0  0  0  0
    3.0000   -5.1962    0.0000 C   0  0  0  0  0  0  0  0  0  0  0  0
    3.7500   -6.4952    0.0000 C   0  0  0  0  0  0  0  0  0  0  0  0
    0.7500   -1.2990    0.0000 C   0  0  0  0  0  0  0  0  0  0  0  0
    1.5000    0.0000    0.0000 N   0  0  0  0  0  0  0  0  0  0  0  0
    0.7500    1.2990    0.0000 C   0  0  0  0  0  0  0  0  0  0  0  0
    1.5000    2.5981    0.0000 C   0  0  0  0  0  0  0  0  0  0  0  0
    3.0000    2.5981    0.0000 C   0  0  0  0  0  0  0  0  0  0  0  0
    3.7500    1.2990    0.0000 O   0  0  0  0  0  0  0  0  0  0  0  0
    3.7500    3.8971    0.0000 C   0  0  0  0  0  0  0  0  0  0  0  0
    3.0000    5.1962    0.0000 C   0  0  0  0  0  0  0  0  0  0  0  0
    1.5000    5.1962    0.0000 C   0  0  0  0  0  0  0  0  0  0  0  0
    0.7500    3.8971    0.0000 C   0  0  0  0  0  0  0  0  0  0  0  0
   -0.7500    3.8971    0.0000 F   0  0  0  0  0  0  0  0  0  0  0  0
   -0.7500    1.2990    0.0000 C   0  0  0  0  0  0  0  0  0  0  0  0
   -1.5000    2.5981    0.0000 Cl  0  0  0  0  0  0  0  0  0  0  0  0
   -1.5000    0.0000    0.0000 C   0  0  0  0  0  0  0  0  0  0  0  0
   -0.7500   -1.2990    0.0000 C   0  0  0  0  0  0  0  0  0  0  0  0
   -3.7500   -3.8971    0.0000 C   0  0  0  0  0  0  0  0  0  0  0  0
   -3.0000   -5.1962    0.0000 C   0  0  0  0  0  0  0  0  0  0  0  0
   -5.2500   -3.8971    0.0000 C   0  0  0  0  0  0  0  0  0  0  0  0
  1  2  2  0
  2  3  1  0
  3  4  2  0
  3  5  1  0
  5  6  1  0
  6  7  1  0
  7  8  1  0
  8  9  1  0
  9 10  2  0
 10 11  1  0
 11 12  2  0
 11 13  1  0
 13 14  1  0
 14 15  2  0
 15 16  1  0
 15 17  1  0
 17 18  2  0
 18 19  1  0
 19 20  2  0
 20 21  1  0
 21 22  1  0
 13 23  1  0
 23 24  2  0
 24 25  1  0
 25 26  1  0
 26 27  2  0
 27 28  1  0
 27 29  1  0
 29 30  2  0
 30 31  1  0
 31 32  2  0
 32 33  1  0
 25 34  2  0
 34 35  1  0
 34 36  1  0
 36 37  2  0
  8 38  1  0
 38 39  1  1
 38 40  1  0
 40  5  1  0
 37  9  1  0
 20 14  1  0
 37 23  1  0
 32 26  1  0
M  END
>  <molecule_chembl_id>  (275) 
CHEMBL4464232

>  <canonical_smiles>  (275) 
C=CC(=O)N1CCN(c2nc(=O)n(-c3c(C)cccc3CC)c3nc(-c4c(O)cccc4F)c(Cl)cc23)[C@@H](C)C1

>  <pchembl_value_mean>  (275) 
7.25

>  <inchi>  (275) 
InChI=1S/C30H29ClFN5O3/c1-5-19-10-7-9-17(3)27(19)37-29-20(15-21(31)26(33-29)25-22(32)11-8-12-23(25)38)28(34-30(37)40)36-14-13-35(16-18(36)4)24(39)6-2/h6-12,15,18,38H,2,5,13-14,16H2,1,3-4H3/t18-/m0/s1

$$$$

     RDKit          2D

135139  0  0  0  0  0  0  0  0999 V2000
    7.4592   15.3348    0.0000 C   0  0  0  0  0  0  0  0  0  0  0  0
    6.1077   14.6840    0.0000 C   0  0  0  0  0  0  0  0  0  0  0  0
    5.9956   13.1882    0.0000 C   0  0  0  0  0  0  0  0  0  0  0  0
    7.2350   12.3432    0.0000 C   0  0  0  0  0  0  0  0  0  0  0  0
    4.6442   12.5373    0.0000 C   0  0  0  0  0  0  0  0  0  0  0  0
    5.1713   11.1330    0.0000 N   0  0  0  0  0  0  0  0  0  0  0  0
    5.4391    9.6571    0.0000 C   0  0  0  0  0  0  0  0  0  0  0  0
    6.9331    9.7915    0.0000 O   0  0  0  0  0  0  0  0  0  0  0  0
    5.4391    8.1571    0.0000 C   0  0  0  0  0  0  0  0  0  0  0  0
    6.9331    8.0226    0.0000 C   0  0  0  0  0  0  0  0  0  0  0  0
    7.5636    6.6616    0.0000 C   0  0  0  0  0  0  0  0  0  0  0  0
    6.7002    5.4350    0.0000 C   0  0  0  0  0  0  0  0  0  0  0  0
    7.3307    4.0740    0.0000 C   0  0  0  0  0  0  0  0  0  0  0  0
    8.8247    3.9395    0.0000 C   0  0  0  0  0  0  0  0  0  0  0  0
    9.4552    2.5785    0.0000 O   0  0  0  0  0  0  0  0  0  0  0  0
    9.6881    5.1661    0.0000 C   0  0  0  0  0  0  0  0  0  0  0  0
    9.0576    6.5271    0.0000 C   0  0  0  0  0  0  0  0  0  0  0  0
    5.1713    6.6812    0.0000 N   0  0  0  0  0  0  0  0  0  0  0  0
    4.6442    5.2768    0.0000 C   0  0  0  0  0  0  0  0  0  0  0  0
    5.9956    4.6260    0.0000 O   0  0  0  0  0  0  0  0  0  0  0  0
    3.8748    3.9892    0.0000 C   0  0  0  0  0  0  0  0  0  0  0  0
    5.0884    3.1075    0.0000 C   0  0  0  0  0  0  0  0  0  0  0  0
    4.9316    1.6157    0.0000 C   0  0  0  0  0  0  0  0  0  0  0  0
    6.1451    0.7340    0.0000 C   0  0  0  0  0  0  0  0  0  0  0  0
    3.5613    1.0056    0.0000 C   0  0  0  0  0  0  0  0  0  0  0  0
    2.8879    2.8596    0.0000 N   0  0  0  0  0  0  0  0  0  0  0  0
    1.7152    1.9243    0.0000 C   0  0  0  0  0  0  0  0  0  0  0  0
    2.5415    0.6725    0.0000 O   0  0  0  0  0  0  0  0  0  0  0  0
    0.3943    1.2135    0.0000 C   0  0  0  0  0  0  0  0  0  0  0  0
    1.2760    0.0000    0.0000 C   0  0  0  0  0  0  0  0  0  0  0  0
    0.3943   -1.2135    0.0000 C   0  0  0  0  0  0  0  0  0  0  0  0
   -1.0323   -0.7500    0.0000 C   0  0  0  0  0  0  0  0  0  0  0  0
   -1.0323    0.7500    0.0000 N   0  0  0  0  0  0  0  0  0  0  0  0
   -2.5187    0.5487    0.0000 C   0  0  0  0  0  0  0  0  0  0  0  0
   -2.4514   -0.9498    0.0000 O   0  0  0  0  0  0  0  0  0  0  0  0
   -4.0172    0.6159    0.0000 C   0  0  0  0  0  0  0  0  0  0  0  0
   -4.2186   -0.8705    0.0000 N   0  0  0  0  0  0  0  0  0  0  0  0
   -5.6065   -1.4393    0.0000 C   0  0  0  0  0  0  0  0  0  0  0  0
   -6.7931   -0.5217    0.0000 O   0  0  0  0  0  0  0  0  0  0  0  0
   -5.8079   -2.9257    0.0000 C   0  0  0  0  0  0  0  0  0  0  0  0
   -7.1958   -3.4946    0.0000 C   0  0  0  0  0  0  0  0  0  0  0  0
   -7.3972   -4.9810    0.0000 C   0  0  0  0  0  0  0  0  0  0  0  0
   -8.7851   -5.5498    0.0000 C   0  0  0  0  0  0  0  0  0  0  0  0
   -8.9865   -7.0363    0.0000 N   0  0  0  0  0  0  0  0  0  0  0  0
  -10.3744   -7.6051    0.0000 C   0  0  0  0  0  0  0  0  0  0  0  0
  -11.5610   -6.6875    0.0000 N   0  0  0  0  0  0  0  0  0  0  0  0
  -10.5758   -9.0915    0.0000 N   0  0  0  0  0  0  0  0  0  0  0  0
   -4.6213   -3.8433    0.0000 N   0  0  0  0  0  0  0  0  0  0  0  0
   -4.8226   -5.3298    0.0000 C   0  0  0  0  0  0  0  0  0  0  0  0
   -6.2106   -5.8986    0.0000 O   0  0  0  0  0  0  0  0  0  0  0  0
   -3.6360   -6.2473    0.0000 C   0  0  0  0  0  0  0  0  0  0  0  0
   -3.8373   -7.7338    0.0000 C   0  0  0  0  0  0  0  0  0  0  0  0
   -2.6507   -8.6513    0.0000 C   0  0  0  0  0  0  0  0  0  0  0  0
   -2.8521  -10.1378    0.0000 C   0  0  0  0  0  0  0  0  0  0  0  0
   -1.6655  -11.0554    0.0000 N   0  0  0  0  0  0  0  0  0  0  0  0
   -1.8668  -12.5418    0.0000 C   0  0  0  0  0  0  0  0  0  0  0  0
   -3.2548  -13.1106    0.0000 N   0  0  0  0  0  0  0  0  0  0  0  0
   -0.6802  -13.4594    0.0000 N   0  0  0  0  0  0  0  0  0  0  0  0
   -2.2480   -5.6785    0.0000 N   0  0  0  0  0  0  0  0  0  0  0  0
   -1.0614   -6.5961    0.0000 C   0  0  0  0  0  0  0  0  0  0  0  0
    0.3265   -6.0272    0.0000 C   0  0  0  0  0  0  0  0  0  0  0  0
   -1.2628   -8.0825    0.0000 O   0  0  0  0  0  0  0  0  0  0  0  0
   -5.4796    0.9497    0.0000 C   0  0  0  0  0  0  0  0  0  0  0  0
   -6.8589    1.5393    0.0000 S   0  0  0  0  0  0  0  0  0  0  0  0
   -8.1107    2.3656    0.0000 S   0  0  0  0  0  0  0  0  0  0  0  0
   -9.1949    3.4022    0.0000 C   0  0  0  0  0  0  0  0  0  0  0  0
  -10.0766    4.6157    0.0000 C   0  0  0  0  0  0  0  0  0  0  0  0
  -11.3643    3.8464    0.0000 C   0  0  0  0  0  0  0  0  0  0  0  0
  -11.3418    2.3466    0.0000 O   0  0  0  0  0  0  0  0  0  0  0  0
  -12.6744    4.5769    0.0000 N   0  0  0  0  0  0  0  0  0  0  0  0
  -13.9621    3.8075    0.0000 C   0  0  0  0  0  0  0  0  0  0  0  0
  -15.2722    4.5380    0.0000 C   0  0  0  0  0  0  0  0  0  0  0  0
  -16.5599    3.7687    0.0000 C   0  0  0  0  0  0  0  0  0  0  0  0
  -17.8700    4.4991    0.0000 C   0  0  0  0  0  0  0  0  0  0  0  0
  -19.1576    3.7298    0.0000 N   0  0  0  0  0  0  0  0  0  0  0  0
  -20.4678    4.4603    0.0000 C   0  0  0  0  0  0  0  0  0  0  0  0
  -20.4902    5.9601    0.0000 N   0  0  0  0  0  0  0  0  0  0  0  0
  -21.7554    3.6909    0.0000 N   0  0  0  0  0  0  0  0  0  0  0  0
  -13.9396    2.3077    0.0000 C   0  0  0  0  0  0  0  0  0  0  0  0
  -12.6295    1.5772    0.0000 O   0  0  0  0  0  0  0  0  0  0  0  0
  -15.2273    1.5383    0.0000 N   0  0  0  0  0  0  0  0  0  0  0  0
  -15.2049    0.0385    0.0000 C   0  0  0  0  0  0  0  0  0  0  0  0
  -16.4925   -0.7308    0.0000 C   0  0  0  0  0  0  0  0  0  0  0  0
  -16.4701   -2.2307    0.0000 C   0  0  0  0  0  0  0  0  0  0  0  0
  -17.7578   -3.0000    0.0000 C   0  0  0  0  0  0  0  0  0  0  0  0
  -17.7353   -4.4999    0.0000 N   0  0  0  0  0  0  0  0  0  0  0  0
  -19.0230   -5.2692    0.0000 C   0  0  0  0  0  0  0  0  0  0  0  0
  -20.3331   -4.5387    0.0000 N   0  0  0  0  0  0  0  0  0  0  0  0
  -19.0006   -6.7690    0.0000 N   0  0  0  0  0  0  0  0  0  0  0  0
  -13.8948   -0.6920    0.0000 C   0  0  0  0  0  0  0  0  0  0  0  0
  -13.8723   -2.1918    0.0000 N   0  0  0  0  0  0  0  0  0  0  0  0
  -12.6071    0.0774    0.0000 O   0  0  0  0  0  0  0  0  0  0  0  0
  -10.7274    5.9672    0.0000 N   0  0  0  0  0  0  0  0  0  0  0  0
  -11.1265    7.4131    0.0000 C   0  0  0  0  0  0  0  0  0  0  0  0
  -12.6024    7.1453    0.0000 O   0  0  0  0  0  0  0  0  0  0  0  0
  -11.2610    8.9071    0.0000 C   0  0  0  0  0  0  0  0  0  0  0  0
  -12.7610    8.9071    0.0000 C   0  0  0  0  0  0  0  0  0  0  0  0
  -13.5110   10.2061    0.0000 C   0  0  0  0  0  0  0  0  0  0  0  0
  -13.5110    7.6081    0.0000 C   0  0  0  0  0  0  0  0  0  0  0  0
  -11.1265   10.4011    0.0000 N   0  0  0  0  0  0  0  0  0  0  0  0
  -10.7274   11.8470    0.0000 C   0  0  0  0  0  0  0  0  0  0  0  0
  -12.1318   12.3741    0.0000 O   0  0  0  0  0  0  0  0  0  0  0  0
  -10.0766   13.1984    0.0000 C   0  0  0  0  0  0  0  0  0  0  0  0
  -11.5032   13.6620    0.0000 C   0  0  0  0  0  0  0  0  0  0  0  0
  -11.5032   15.1620    0.0000 C   0  0  0  0  0  0  0  0  0  0  0  0
  -10.0766   15.6255    0.0000 C   0  0  0  0  0  0  0  0  0  0  0  0
   -9.1949   14.4120    0.0000 N   0  0  0  0  0  0  0  0  0  0  0  0
   -8.1107   15.4486    0.0000 C   0  0  0  0  0  0  0  0  0  0  0  0
   -9.0460   16.6213    0.0000 O   0  0  0  0  0  0  0  0  0  0  0  0
   -6.8589   16.2749    0.0000 C   0  0  0  0  0  0  0  0  0  0  0  0
   -7.5697   17.5958    0.0000 C   0  0  0  0  0  0  0  0  0  0  0  0
   -6.7812   18.8718    0.0000 C   0  0  0  0  0  0  0  0  0  0  0  0
   -5.2818   18.8270    0.0000 O   0  0  0  0  0  0  0  0  0  0  0  0
   -7.4920   20.1927    0.0000 O   0  0  0  0  0  0  0  0  0  0  0  0
   -5.4796   16.8645    0.0000 N   0  0  0  0  0  0  0  0  0  0  0  0
   -4.0172   17.1982    0.0000 C   0  0  0  0  0  0  0  0  0  0  0  0
   -4.2186   18.6847    0.0000 O   0  0  0  0  0  0  0  0  0  0  0  0
   -2.5187   17.2655    0.0000 C   0  0  0  0  0  0  0  0  0  0  0  0
   -2.4514   18.7640    0.0000 C   0  0  0  0  0  0  0  0  0  0  0  0
   -1.1200   19.4550    0.0000 C   0  0  0  0  0  0  0  0  0  0  0  0
    0.1440   18.6475    0.0000 C   0  0  0  0  0  0  0  0  0  0  0  0
    1.4754   19.3384    0.0000 C   0  0  0  0  0  0  0  0  0  0  0  0
    1.5427   20.8369    0.0000 C   0  0  0  0  0  0  0  0  0  0  0  0
    2.8741   21.5279    0.0000 O   0  0  0  0  0  0  0  0  0  0  0  0
    0.2786   21.6444    0.0000 C   0  0  0  0  0  0  0  0  0  0  0  0
   -1.0527   20.9535    0.0000 C   0  0  0  0  0  0  0  0  0  0  0  0
   -1.0323   17.0642    0.0000 N   0  0  0  0  0  0  0  0  0  0  0  0
    0.3943   16.6007    0.0000 C   0  0  0  0  0  0  0  0  0  0  0  0
    0.9838   17.9799    0.0000 O   0  0  0  0  0  0  0  0  0  0  0  0
    1.7152   15.8899    0.0000 C   0  0  0  0  0  0  0  0  0  0  0  0
    2.5415   17.1417    0.0000 C   0  0  0  0  0  0  0  0  0  0  0  0
    4.0389   17.0520    0.0000 O   0  0  0  0  0  0  0  0  0  0  0  0
    2.8879   14.9546    0.0000 N   0  0  0  0  0  0  0  0  0  0  0  0
    3.8748   13.8250    0.0000 C   0  0  0  0  0  0  0  0  0  0  0  0
    5.0884   14.7067    0.0000 O   0  0  0  0  0  0  0  0  0  0  0  0
  1  2  1  0
  2  3  1  0
  3  4  1  6
  3  5  1  0
  5  6  1  6
  6  7  1  0
  7  8  2  0
  7  9  1  0
  9 10  1  6
 10 11  1  0
 11 12  2  0
 12 13  1  0
 13 14  2  0
 14 15  1  0
 14 16  1  0
 16 17  2  0
  9 18  1  0
 18 19  1  0
 19 20  2  0
 19 21  1  0
 21 22  1  6
 22 23  1  0
 23 24  1  0
 23 25  1  0
 21 26  1  0
 26 27  1  0
 27 28  2  0
 27 29  1  0
 29 30  1  6
 30 31  1  0
 31 32  1  0
 32 33  1  0
 33 34  1  0
 34 35  2  0
 34 36  1  0
 36 37  1  1
 37 38  1  0
 38 39  2  0
 38 40  1  0
 40 41  1  1
 41 42  1  0
 42 43  1  0
 43 44  1  0
 44 45  1  0
 45 46  2  0
 45 47  1  0
 40 48  1  0
 48 49  1  0
 49 50  2  0
 49 51  1  0
 51 52  1  1
 52 53  1  0
 53 54  1  0
 54 55  1  0
 55 56  1  0
 56 57  2  0
 56 58  1  0
 51 59  1  0
 59 60  1  0
 60 61  1  0
 60 62  2  0
 36 63  1  0
 63 64  1  0
 64 65  1  0
 65 66  1  0
 66 67  1  0
 67 68  1  1
 68 69  2  0
 68 70  1  0
 70 71  1  0
 71 72  1  6
 72 73  1  0
 73 74  1  0
 74 75  1  0
 75 76  1  0
 76 77  2  0
 76 78  1  0
 71 79  1  0
 79 80  2  0
 79 81  1  0
 81 82  1  0
 82 83  1  6
 83 84  1  0
 84 85  1  0
 85 86  1  0
 86 87  1  0
 87 88  2  0
 87 89  1  0
 82 90  1  0
 90 91  1  0
 90 92  2  0
 67 93  1  0
 93 94  1  0
 94 95  2  0
 94 96  1  0
 96 97  1  6
 97 98  1  0
 97 99  1  0
 96100  1  0
100101  1  0
101102  2  0
101103  1  0
103104  1  6
104105  1  0
105106  1  0
106107  1  0
107108  1  0
108109  2  0
108110  1  0
110111  1  6
111112  1  0
112113  2  0
112114  1  0
110115  1  0
115116  1  0
116117  2  0
116118  1  0
118119  1  6
119120  1  0
120121  2  0
121122  1  0
122123  2  0
123124  1  0
123125  1  0
125126  2  0
118127  1  0
127128  1  0
128129  2  0
128130  1  0
130131  1  6
131132  1  0
130133  1  0
133134  1  0
134135  2  0
134  5  1  0
 17 11  1  0
 33 29  1  0
107103  1  0
126120  1  0
M  END
>  <molecule_chembl_id>  (276) 
CHEMBL5189659

>  <canonical_smiles>  (276) 
CC[C@H](C)[C@@H]1NC(=O)[C@H](Cc2ccc(O)cc2)NC(=O)[C@H](CC(C)C)NC(=O)[C@@H]2CCCN2C(=O)[C@@H](NC(=O)[C@H](CCCNC(=N)N)NC(=O)[C@H](CCCNC(=N)N)NC(C)=O)CSSC[C@@H](C(=O)N[C@@H](CCCNC(=N)N)C(=O)N[C@@H](CCCNC(=N)N)C(N)=O)NC(=O)[C@H](C(C)C)NC(=O)[C@@H]2CCCN2C(=O)[C@H](CC(=O)O)NC(=O)[C@H](Cc2ccc(O)cc2)NC(=O)[C@H](CO)NC1=O

>  <pchembl_value_mean>  (276) 
7.27

>  <inchi>  (276) 
InChI=1S/C84H134N28O21S2/c1-8-44(6)65-78(131)106-58(39-113)73(126)103-55(36-46-21-25-48(115)26-22-46)71(124)105-57(38-63(117)118)79(132)111-33-14-20-62(111)76(129)109-64(43(4)5)77(130)107-59(74(127)101-52(17-11-31-96-83(90)91)68(121)99-50(66(85)119)15-9-29-94-81(86)87)40-134-135-41-60(108-69(122)53(18-12-32-97-84(92)93)100-67(120)51(98-45(7)114)16-10-30-95-82(88)89)80(133)112-34-13-19-61(112)75(128)104-54(35-42(2)3)70(123)102-56(72(125)110-65)37-47-23-27-49(116)28-24-47/h21-28,42-44,50-62,64-65,113,115-116H,8-20,29-41H2,1-7H3,(H2,85,119)(H,98,114)(H,99,121)(H,100,120)(H,101,127)(H,102,123)(H,103,126)(H,104,128)(H,105,124)(H,106,131)(H,107,130)(H,108,122)(H,109,129)(H,110,125)(H,117,118)(H4,86,87,94)(H4,88,89,95)(H4,90,91,96)(H4,92,93,97)/t44-,50-,51-,52-,53-,54-,55-,56-,57-,58-,59-,60-,61-,62-,64-,65-/m0/s1

$$$$

     RDKit          2D

 32 36  0  0  0  0  0  0  0  0999 V2000
    5.2500   -1.2990    0.0000 C   0  0  0  0  0  0  0  0  0  0  0  0
    3.7500   -1.2990    0.0000 C   0  0  0  0  0  0  0  0  0  0  0  0
    3.0000    0.0000    0.0000 C   0  0  0  0  0  0  0  0  0  0  0  0
    3.7500    1.2990    0.0000 O   0  0  0  0  0  0  0  0  0  0  0  0
    1.5000    0.0000    0.0000 N   0  0  0  0  0  0  0  0  0  0  0  0
    0.7500   -1.2990    0.0000 C   0  0  0  0  0  0  0  0  0  0  0  0
   -0.7500   -1.2990    0.0000 C   0  0  0  0  0  0  0  0  0  0  0  0
   -1.5000   -2.5981    0.0000 C   0  0  0  0  0  0  0  0  0  0  0  0
   -3.0000   -2.5981    0.0000 O   0  0  0  0  0  0  0  0  0  0  0  0
   -3.7500   -1.2990    0.0000 C   0  0  0  0  0  0  0  0  0  0  0  0
   -5.2500   -1.2990    0.0000 C   0  0  0  0  0  0  0  0  0  0  0  0
   -6.0000    0.0000    0.0000 N   0  0  0  0  0  0  0  0  0  0  0  0
   -5.2500    1.2990    0.0000 C   0  0  0  0  0  0  0  0  0  0  0  0
   -6.0000    2.5981    0.0000 C   0  0  0  0  0  0  0  0  0  0  0  0
   -5.2500    3.8971    0.0000 C   0  0  0  0  0  0  0  0  0  0  0  0
   -6.0000    5.1962    0.0000 C   0  0  0  0  0  0  0  0  0  0  0  0
   -5.2500    6.4952    0.0000 C   0  0  0  0  0  0  0  0  0  0  0  0
   -3.7500    6.4952    0.0000 O   0  0  0  0  0  0  0  0  0  0  0  0
   -6.0000    7.7942    0.0000 C   0  0  0  0  0  0  0  0  0  0  0  0
   -7.5000    7.7942    0.0000 C   0  0  0  0  0  0  0  0  0  0  0  0
   -8.2500    6.4952    0.0000 C   0  0  0  0  0  0  0  0  0  0  0  0
   -7.5000    5.1962    0.0000 C   0  0  0  0  0  0  0  0  0  0  0  0
   -8.2500    3.8971    0.0000 F   0  0  0  0  0  0  0  0  0  0  0  0
   -3.7500    3.8971    0.0000 C   0  0  0  0  0  0  0  0  0  0  0  0
   -3.0000    5.1962    0.0000 Cl  0  0  0  0  0  0  0  0  0  0  0  0
   -3.0000    2.5981    0.0000 C   0  0  0  0  0  0  0  0  0  0  0  0
   -3.7500    1.2990    0.0000 C   0  0  0  0  0  0  0  0  0  0  0  0
   -3.0000    0.0000    0.0000 C   0  0  0  0  0  0  0  0  0  0  0  0
   -1.5000    0.0000    0.0000 N   0  0  0  0  0  0  0  0  0  0  0  0
   -0.7500    1.2990    0.0000 C   0  0  0  0  0  0  0  0  0  0  0  0
    0.7500    1.2990    0.0000 C   0  0  0  0  0  0  0  0  0  0  0  0
    1.5000    2.5981    0.0000 C   0  0  0  0  0  0  0  0  0  0  0  0
  1  2  2  0
  2  3  1  0
  3  4  2  0
  3  5  1  0
  5  6  1  0
  7  6  1  6
  7  8  1  0
  8  9  1  0
  9 10  1  0
 10 11  2  0
 11 12  1  0
 12 13  2  0
 13 14  1  0
 14 15  2  0
 15 16  1  0
 16 17  2  0
 17 18  1  0
 17 19  1  0
 19 20  2  0
 20 21  1  0
 21 22  2  0
 22 23  1  0
 15 24  1  0
 24 25  1  0
 24 26  2  0
 26 27  1  0
 27 28  2  0
 28 29  1  0
 29 30  1  0
 30 31  1  0
 31 32  1  1
 31  5  1  0
 29  7  1  0
 28 10  1  0
 27 13  1  0
 22 16  1  0
M  END
>  <molecule_chembl_id>  (277) 
CHEMBL4455191

>  <canonical_smiles>  (277) 
C=CC(=O)N1C[C@@H]2COc3cnc4cc(-c5c(O)cccc5F)c(Cl)cc4c3N2C[C@H]1C

>  <pchembl_value_mean>  (277) 
7.28

>  <inchi>  (277) 
InChI=1S/C24H21ClFN3O3/c1-3-22(31)28-11-14-12-32-21-9-27-19-8-15(23-18(26)5-4-6-20(23)30)17(25)7-16(19)24(21)29(14)10-13(28)2/h3-9,13-14,30H,1,10-12H2,2H3/t13-,14-/m1/s1

$$$$

     RDKit          2D

 37 43  0  0  0  0  0  0  0  0999 V2000
   -4.8664   15.8818    0.0000 C   0  0  0  0  0  0  0  0  0  0  0  0
   -4.5545   14.4146    0.0000 C   0  0  0  0  0  0  0  0  0  0  0  0
   -5.6692   13.4109    0.0000 C   0  0  0  0  0  0  0  0  0  0  0  0
   -7.0958   13.8744    0.0000 O   0  0  0  0  0  0  0  0  0  0  0  0
   -5.3573   11.9437    0.0000 N   0  0  0  0  0  0  0  0  0  0  0  0
   -4.0993   11.1267    0.0000 C   0  0  0  0  0  0  0  0  0  0  0  0
   -4.9163    9.8687    0.0000 C   0  0  0  0  0  0  0  0  0  0  0  0
   -5.7333    8.6107    0.0000 C   0  0  0  0  0  0  0  0  0  0  0  0
   -4.4752    7.7937    0.0000 C   0  0  0  0  0  0  0  0  0  0  0  0
   -4.1634    6.3265    0.0000 N   0  0  0  0  0  0  0  0  0  0  0  0
   -2.7931    5.7164    0.0000 N   0  0  0  0  0  0  0  0  0  0  0  0
   -2.9499    4.2246    0.0000 C   0  0  0  0  0  0  0  0  0  0  0  0
   -1.8351    3.2209    0.0000 C   0  0  0  0  0  0  0  0  0  0  0  0
   -0.4086    3.6844    0.0000 C   0  0  0  0  0  0  0  0  0  0  0  0
    0.7062    2.6807    0.0000 C   0  0  0  0  0  0  0  0  0  0  0  0
    0.3943    1.2135    0.0000 C   0  0  0  0  0  0  0  0  0  0  0  0
    1.2760    0.0000    0.0000 C   0  0  0  0  0  0  0  0  0  0  0  0
    0.3943   -1.2135    0.0000 N   0  0  0  0  0  0  0  0  0  0  0  0
   -1.0323   -0.7500    0.0000 N   0  0  0  0  0  0  0  0  0  0  0  0
   -1.0323    0.7500    0.0000 C   0  0  0  0  0  0  0  0  0  0  0  0
   -2.1470    1.7537    0.0000 C   0  0  0  0  0  0  0  0  0  0  0  0
   -4.4171    3.9127    0.0000 C   0  0  0  0  0  0  0  0  0  0  0  0
   -5.0272    2.5424    0.0000 C   0  0  0  0  0  0  0  0  0  0  0  0
   -6.5190    2.3856    0.0000 C   0  0  0  0  0  0  0  0  0  0  0  0
   -7.4006    3.5992    0.0000 Cl  0  0  0  0  0  0  0  0  0  0  0  0
   -7.1291    1.0153    0.0000 C   0  0  0  0  0  0  0  0  0  0  0  0
   -8.6209    0.8585    0.0000 C   0  0  0  0  0  0  0  0  0  0  0  0
   -6.2474   -0.1982    0.0000 C   0  0  0  0  0  0  0  0  0  0  0  0
   -4.7556   -0.0414    0.0000 C   0  0  0  0  0  0  0  0  0  0  0  0
   -3.6409   -1.0451    0.0000 N   0  0  0  0  0  0  0  0  0  0  0  0
   -2.3419   -0.2951    0.0000 N   0  0  0  0  0  0  0  0  0  0  0  0
   -2.6537    1.1721    0.0000 C   0  0  0  0  0  0  0  0  0  0  0  0
   -4.1455    1.3289    0.0000 C   0  0  0  0  0  0  0  0  0  0  0  0
   -5.1671    5.2118    0.0000 C   0  0  0  0  0  0  0  0  0  0  0  0
   -6.6589    5.3686    0.0000 C   0  0  0  0  0  0  0  0  0  0  0  0
   -3.6583    9.0517    0.0000 C   0  0  0  0  0  0  0  0  0  0  0  0
   -6.1743   10.6856    0.0000 C   0  0  0  0  0  0  0  0  0  0  0  0
  1  2  2  0
  2  3  1  0
  3  4  2  0
  3  5  1  0
  5  6  1  0
  6  7  1  0
  7  8  1  0
  8  9  1  0
  9 10  1  0
 10 11  1  0
 11 12  2  0
 12 13  1  0
 13 14  2  0
 14 15  1  0
 15 16  2  0
 16 17  1  0
 17 18  2  0
 18 19  1  0
 19 20  1  0
 20 21  2  0
 12 22  1  0
 22 23  1  0
 23 24  2  0
 24 25  1  0
 24 26  1  0
 26 27  1  0
 26 28  2  0
 28 29  1  0
 29 30  1  0
 30 31  1  0
 31 32  2  0
 32 33  1  0
 22 34  2  0
 34 35  1  0
  9 36  1  0
  7 37  1  0
 37  5  1  0
 36  7  1  0
 34 10  1  0
 21 13  1  0
 33 23  1  0
 20 16  1  0
 33 29  2  0
M  END
>  <molecule_chembl_id>  (278) 
CHEMBL5289194

>  <canonical_smiles>  (278) 
C=CC(=O)N1CC2(CC(n3nc(-c4ccc5cn[nH]c5c4)c(-c4c(Cl)c(C)cc5[nH]ncc45)c3C)C2)C1

>  <pchembl_value_mean>  (278) 
7.3

>  <inchi>  (278) 
InChI=1S/C28H26ClN7O/c1-4-23(37)35-13-28(14-35)9-19(10-28)36-16(3)24(25-20-12-31-33-22(20)7-15(2)26(25)29)27(34-36)17-5-6-18-11-30-32-21(18)8-17/h4-8,11-12,19H,1,9-10,13-14H2,2-3H3,(H,30,32)(H,31,33)

$$$$

     RDKit          2D

 41 45  0  0  0  0  0  0  0  0999 V2000
   -9.7500   -1.2990    0.0000 C   0  0  0  0  0  0  0  0  0  0  0  0
   -8.2500   -1.2990    0.0000 C   0  0  0  0  0  0  0  0  0  0  0  0
   -7.5000   -2.5981    0.0000 C   0  0  0  0  0  0  0  0  0  0  0  0
   -8.2500   -3.8971    0.0000 O   0  0  0  0  0  0  0  0  0  0  0  0
   -6.0000   -2.5981    0.0000 N   0  0  0  0  0  0  0  0  0  0  0  0
   -5.2500   -1.2990    0.0000 C   0  0  0  0  0  0  0  0  0  0  0  0
   -3.7500   -1.2990    0.0000 C   0  0  0  0  0  0  0  0  0  0  0  0
   -3.0000   -2.5981    0.0000 N   0  0  0  0  0  0  0  0  0  0  0  0
   -1.5000   -2.5981    0.0000 C   0  0  0  0  0  0  0  0  0  0  0  0
   -0.7500   -3.8971    0.0000 N   0  0  0  0  0  0  0  0  0  0  0  0
    0.7500   -3.8971    0.0000 C   0  0  0  0  0  0  0  0  0  0  0  0
    1.5000   -5.1962    0.0000 O   0  0  0  0  0  0  0  0  0  0  0  0
    1.5000   -2.5981    0.0000 N   0  0  0  0  0  0  0  0  0  0  0  0
    3.0000   -2.5981    0.0000 C   0  0  0  0  0  0  0  0  0  0  0  0
    3.7500   -3.8971    0.0000 C   0  0  0  0  0  0  0  0  0  0  0  0
    3.0000   -5.1962    0.0000 C   0  0  0  0  0  0  0  0  0  0  0  0
    3.7500   -6.4952    0.0000 C   0  0  0  0  0  0  0  0  0  0  0  0
    5.2500   -3.8971    0.0000 C   0  0  0  0  0  0  0  0  0  0  0  0
    6.0000   -2.5981    0.0000 C   0  0  0  0  0  0  0  0  0  0  0  0
    5.2500   -1.2990    0.0000 C   0  0  0  0  0  0  0  0  0  0  0  0
    3.7500   -1.2990    0.0000 C   0  0  0  0  0  0  0  0  0  0  0  0
    3.0000   -0.0000    0.0000 C   0  0  0  0  0  0  0  0  0  0  0  0
    3.6581    0.8733    0.0000 C   0  0  0  0  0  0  0  0  0  0  0  0
    0.7500   -1.2990    0.0000 C   0  0  0  0  0  0  0  0  0  0  0  0
    1.5000    0.0000    0.0000 N   0  0  0  0  0  0  0  0  0  0  0  0
    0.7500    1.2990    0.0000 C   0  0  0  0  0  0  0  0  0  0  0  0
    1.5000    2.5981    0.0000 C   0  0  0  0  0  0  0  0  0  0  0  0
    0.7500    3.8971    0.0000 C   0  0  0  0  0  0  0  0  0  0  0  0
   -0.7500    3.8971    0.0000 O   0  0  0  0  0  0  0  0  0  0  0  0
    1.5000    5.1962    0.0000 C   0  0  0  0  0  0  0  0  0  0  0  0
    3.0000    5.1962    0.0000 C   0  0  0  0  0  0  0  0  0  0  0  0
    3.7500    3.8971    0.0000 C   0  0  0  0  0  0  0  0  0  0  0  0
    3.0000    2.5981    0.0000 C   0  0  0  0  0  0  0  0  0  0  0  0
    3.6581    1.7248    0.0000 F   0  0  0  0  0  0  0  0  0  0  0  0
   -0.7500    1.2990    0.0000 C   0  0  0  0  0  0  0  0  0  0  0  0
   -1.5000    2.5981    0.0000 Cl  0  0  0  0  0  0  0  0  0  0  0  0
   -1.5000    0.0000    0.0000 C   0  0  0  0  0  0  0  0  0  0  0  0
   -0.7500   -1.2990    0.0000 C   0  0  0  0  0  0  0  0  0  0  0  0
   -3.7500   -3.8971    0.0000 C   0  0  0  0  0  0  0  0  0  0  0  0
   -3.0000   -5.1962    0.0000 C   0  0  0  0  0  0  0  0  0  0  0  0
   -5.2500   -3.8971    0.0000 C   0  0  0  0  0  0  0  0  0  0  0  0
  1  2  2  0
  2  3  1  0
  3  4  2  0
  3  5  1  0
  5  6  1  0
  6  7  1  0
  7  8  1  0
  8  9  1  0
  9 10  2  0
 10 11  1  0
 11 12  2  0
 11 13  1  0
 13 14  1  0
 14 15  2  0
 15 16  1  0
 16 17  1  0
 15 18  1  0
 18 19  2  0
 19 20  1  0
 20 21  2  0
 21 22  1  0
 22 23  1  0
 13 24  1  0
 24 25  2  0
 25 26  1  0
 26 27  1  0
 27 28  2  0
 28 29  1  0
 28 30  1  0
 30 31  2  0
 31 32  1  0
 32 33  2  0
 33 34  1  0
 26 35  2  0
 35 36  1  0
 35 37  1  0
 37 38  2  0
  8 39  1  0
 39 40  1  1
 39 41  1  0
 41  5  1  0
 38  9  1  0
 21 14  1  0
 38 24  1  0
 33 27  1  0
M  END
>  <molecule_chembl_id>  (279) 
CHEMBL4554946

>  <canonical_smiles>  (279) 
C=CC(=O)N1CCN(c2nc(=O)n(-c3c(CC)cccc3CC)c3nc(-c4c(O)cccc4F)c(Cl)cc23)[C@@H](C)C1

>  <pchembl_value_mean>  (279) 
7.305

>  <inchi>  (279) 
InChI=1S/C31H31ClFN5O3/c1-5-19-10-8-11-20(6-2)28(19)38-30-21(16-22(32)27(34-30)26-23(33)12-9-13-24(26)39)29(35-31(38)41)37-15-14-36(17-18(37)4)25(40)7-3/h7-13,16,18,39H,3,5-6,14-15,17H2,1-2,4H3/t18-/m0/s1

$$$$

     RDKit          2D

 57 65  0  0  0  0  0  0  0  0999 V2000
   -9.2579   -4.1213    0.0000 C   0  0  0  0  0  0  0  0  0  0  0  0
   -8.8157   -2.6879    0.0000 C   0  0  0  0  0  0  0  0  0  0  0  0
   -9.7155   -1.4877    0.0000 C   0  0  0  0  0  0  0  0  0  0  0  0
   -8.8520   -0.2611    0.0000 N   0  0  0  0  0  0  0  0  0  0  0  0
   -8.8745    1.2387    0.0000 C   0  0  0  0  0  0  0  0  0  0  0  0
   -7.4550    1.7235    0.0000 C   0  0  0  0  0  0  0  0  0  0  0  0
   -6.5552    0.5233    0.0000 C   0  0  0  0  0  0  0  0  0  0  0  0
   -7.4187   -0.7033    0.0000 C   0  0  0  0  0  0  0  0  0  0  0  0
   -5.9853   -1.1454    0.0000 C   0  0  0  0  0  0  0  0  0  0  0  0
   -5.6515   -2.6078    0.0000 O   0  0  0  0  0  0  0  0  0  0  0  0
   -4.2182   -3.0499    0.0000 C   0  0  0  0  0  0  0  0  0  0  0  0
   -3.1186   -2.0297    0.0000 N   0  0  0  0  0  0  0  0  0  0  0  0
   -1.6852   -2.4718    0.0000 C   0  0  0  0  0  0  0  0  0  0  0  0
   -1.3515   -3.9342    0.0000 C   0  0  0  0  0  0  0  0  0  0  0  0
   -0.0000   -4.5850    0.0000 C   0  0  0  0  0  0  0  0  0  0  0  0
    0.3416   -6.0505    0.0000 C   0  0  0  0  0  0  0  0  0  0  0  0
    1.7379   -6.5985    0.0000 Cl  0  0  0  0  0  0  0  0  0  0  0  0
   -0.8312   -6.9857    0.0000 C   0  0  0  0  0  0  0  0  0  0  0  0
   -0.6076   -8.4689    0.0000 C   0  0  0  0  0  0  0  0  0  0  0  0
    0.7887   -9.0170    0.0000 N   0  0  0  0  0  0  0  0  0  0  0  0
    1.0123  -10.5002    0.0000 C   0  0  0  0  0  0  0  0  0  0  0  0
    2.4086  -11.0482    0.0000 N   0  0  0  0  0  0  0  0  0  0  0  0
   -0.1605  -11.4354    0.0000 C   0  0  0  0  0  0  0  0  0  0  0  0
   -1.5568  -10.8874    0.0000 C   0  0  0  0  0  0  0  0  0  0  0  0
   -2.7295  -11.8227    0.0000 C   0  0  0  0  0  0  0  0  0  0  0  0
   -1.7803   -9.4042    0.0000 C   0  0  0  0  0  0  0  0  0  0  0  0
   -3.1767   -8.8562    0.0000 C   0  0  0  0  0  0  0  0  0  0  0  0
   -4.5730   -8.3082    0.0000 F   0  0  0  0  0  0  0  0  0  0  0  0
   -3.7247  -10.2525    0.0000 F   0  0  0  0  0  0  0  0  0  0  0  0
   -2.6286   -7.4599    0.0000 F   0  0  0  0  0  0  0  0  0  0  0  0
   -2.2275   -6.4377    0.0000 C   0  0  0  0  0  0  0  0  0  0  0  0
   -2.4510   -4.9544    0.0000 C   0  0  0  0  0  0  0  0  0  0  0  0
   -3.8844   -4.5123    0.0000 N   0  0  0  0  0  0  0  0  0  0  0  0
    1.3515   -3.9342    0.0000 O   0  0  0  0  0  0  0  0  0  0  0  0
    1.6852   -2.4718    0.0000 C   0  0  0  0  0  0  0  0  0  0  0  0
    0.7500   -1.2990    0.0000 C   0  0  0  0  0  0  0  0  0  0  0  0
    1.5000    0.0000    0.0000 C   0  0  0  0  0  0  0  0  0  0  0  0
    0.7500    1.2990    0.0000 N   0  0  0  0  0  0  0  0  0  0  0  0
    1.5000    2.5981    0.0000 C   0  0  0  0  0  0  0  0  0  0  0  0
    0.7500    3.8971    0.0000 O   0  0  0  0  0  0  0  0  0  0  0  0
    3.0000    2.5981    0.0000 C   0  0  0  0  0  0  0  0  0  0  0  0
    3.7500    3.8971    0.0000 C   0  0  0  0  0  0  0  0  0  0  0  0
    5.2500    3.8971    0.0000 C   0  0  0  0  0  0  0  0  0  0  0  0
    6.0000    2.5981    0.0000 N   0  0  0  0  0  0  0  0  0  0  0  0
    7.5000    2.5981    0.0000 C   0  0  0  0  0  0  0  0  0  0  0  0
    8.2500    3.8971    0.0000 C   0  0  0  0  0  0  0  0  0  0  0  0
    7.5000    5.1962    0.0000 C   0  0  0  0  0  0  0  0  0  0  0  0
    6.0000    5.1962    0.0000 C   0  0  0  0  0  0  0  0  0  0  0  0
    5.2500    6.4952    0.0000 C   0  0  0  0  0  0  0  0  0  0  0  0
    6.0000    7.7942    0.0000 N   0  0  0  0  0  0  0  0  0  0  0  0
    5.2500    9.0933    0.0000 C   0  0  0  0  0  0  0  0  0  0  0  0
    7.5000    7.7942    0.0000 C   0  0  0  0  0  0  0  0  0  0  0  0
    8.2500    6.4952    0.0000 C   0  0  0  0  0  0  0  0  0  0  0  0
   -0.7500    1.2990    0.0000 C   0  0  0  0  0  0  0  0  0  0  0  0
   -1.5000    0.0000    0.0000 C   0  0  0  0  0  0  0  0  0  0  0  0
   -0.7500   -1.2990    0.0000 N   0  0  0  0  0  0  0  0  0  0  0  0
   -7.3962   -2.2031    0.0000 C   0  0  0  0  0  0  0  0  0  0  0  0
  1  2  2  0
  2  3  1  0
  3  4  1  0
  4  5  1  0
  5  6  1  0
  6  7  1  0
  7  8  1  0
  8  9  1  6
  9 10  1  0
 10 11  1  0
 11 12  2  0
 12 13  1  0
 13 14  2  0
 14 15  1  0
 15 16  2  0
 16 17  1  0
 16 18  1  0
 18 19  1  0
 19 20  2  0
 20 21  1  0
 21 22  1  0
 21 23  2  0
 23 24  1  0
 24 25  1  0
 24 26  2  0
 26 27  1  0
 27 28  1  0
 27 29  1  0
 27 30  1  0
 18 31  2  0
 31 32  1  0
 32 33  2  0
 15 34  1  0
 34 35  1  0
 36 35  1  1
 36 37  1  0
 37 38  1  0
 38 39  1  0
 39 40  2  0
 39 41  1  0
 41 42  2  0
 42 43  1  0
 43 44  2  0
 44 45  1  0
 45 46  2  0
 46 47  1  0
 47 48  2  0
 48 49  1  0
 49 50  1  0
 50 51  1  0
 50 52  1  0
 52 53  1  0
 38 54  1  0
 54 55  1  0
 55 56  1  0
  8 57  1  0
 57  2  1  0
  8  4  1  0
 33 11  1  0
 56 36  1  0
 56 13  1  0
 32 14  1  0
 48 43  1  0
 26 19  1  0
 53 47  1  0
M  END
>  <molecule_chembl_id>  (280) 
CHEMBL5402298

>  <canonical_smiles>  (280) 
C=C1CN2CCC[C@@]2(COc2nc3c4c(c(Cl)c(-c5nc(N)cc(C)c5C(F)(F)F)cc4n2)OC[C@@H]2CN(C(=O)/C=C/c4nccc5c4CN(C)CC5)CCN32)C1

>  <pchembl_value_mean>  (280) 
7.31

>  <inchi>  (280) 
InChI=1S/C41H43ClF3N9O3/c1-23-17-40(9-4-11-53(40)18-23)22-57-39-48-30-16-27(36-34(41(43,44)45)24(2)15-31(46)49-36)35(42)37-33(30)38(50-39)54-14-13-52(19-26(54)21-56-37)32(55)6-5-29-28-20-51(3)12-8-25(28)7-10-47-29/h5-7,10,15-16,26H,1,4,8-9,11-14,17-22H2,2-3H3,(H2,46,49)/b6-5+/t26-,40-/m0/s1

$$$$

     RDKit          2D

 40 44  0  0  0  0  0  0  0  0999 V2000
   -9.7500   -1.2990    0.0000 C   0  0  0  0  0  0  0  0  0  0  0  0
   -8.2500   -1.2990    0.0000 C   0  0  0  0  0  0  0  0  0  0  0  0
   -7.5000   -2.5981    0.0000 C   0  0  0  0  0  0  0  0  0  0  0  0
   -8.2500   -3.8971    0.0000 O   0  0  0  0  0  0  0  0  0  0  0  0
   -6.0000   -2.5981    0.0000 N   0  0  0  0  0  0  0  0  0  0  0  0
   -5.2500   -1.2990    0.0000 C   0  0  0  0  0  0  0  0  0  0  0  0
   -3.7500   -1.2990    0.0000 C   0  0  0  0  0  0  0  0  0  0  0  0
   -3.0000   -2.5981    0.0000 N   0  0  0  0  0  0  0  0  0  0  0  0
   -1.5000   -2.5981    0.0000 C   0  0  0  0  0  0  0  0  0  0  0  0
   -0.7500   -3.8971    0.0000 N   0  0  0  0  0  0  0  0  0  0  0  0
    0.7500   -3.8971    0.0000 C   0  0  0  0  0  0  0  0  0  0  0  0
    1.1772   -4.9037    0.0000 O   0  0  0  0  0  0  0  0  0  0  0  0
    1.5000   -2.5981    0.0000 N   0  0  0  0  0  0  0  0  0  0  0  0
    3.0000   -2.5981    0.0000 C   0  0  0  0  0  0  0  0  0  0  0  0
    3.7500   -1.2990    0.0000 C   0  0  0  0  0  0  0  0  0  0  0  0
    5.2500   -1.2990    0.0000 C   0  0  0  0  0  0  0  0  0  0  0  0
    6.0000   -2.5981    0.0000 C   0  0  0  0  0  0  0  0  0  0  0  0
    5.2500   -3.8971    0.0000 C   0  0  0  0  0  0  0  0  0  0  0  0
    3.7500   -3.8971    0.0000 C   0  0  0  0  0  0  0  0  0  0  0  0
    3.0000   -5.1962    0.0000 C   0  0  0  0  0  0  0  0  0  0  0  0
    3.7500   -6.4952    0.0000 C   0  0  0  0  0  0  0  0  0  0  0  0
    1.9147   -5.3294    0.0000 C   0  0  0  0  0  0  0  0  0  0  0  0
    0.7500   -1.2990    0.0000 C   0  0  0  0  0  0  0  0  0  0  0  0
    1.5000    0.0000    0.0000 N   0  0  0  0  0  0  0  0  0  0  0  0
    0.7500    1.2990    0.0000 C   0  0  0  0  0  0  0  0  0  0  0  0
    1.5000    2.5981    0.0000 C   0  0  0  0  0  0  0  0  0  0  0  0
    3.0000    2.5981    0.0000 C   0  0  0  0  0  0  0  0  0  0  0  0
    3.7500    1.2990    0.0000 O   0  0  0  0  0  0  0  0  0  0  0  0
    3.7500    3.8971    0.0000 C   0  0  0  0  0  0  0  0  0  0  0  0
    3.0000    5.1962    0.0000 C   0  0  0  0  0  0  0  0  0  0  0  0
    1.5000    5.1962    0.0000 C   0  0  0  0  0  0  0  0  0  0  0  0
    0.7500    3.8971    0.0000 C   0  0  0  0  0  0  0  0  0  0  0  0
   -0.7500    3.8971    0.0000 F   0  0  0  0  0  0  0  0  0  0  0  0
   -0.7500    1.2990    0.0000 C   0  0  0  0  0  0  0  0  0  0  0  0
   -1.5000    2.5981    0.0000 Cl  0  0  0  0  0  0  0  0  0  0  0  0
   -1.5000    0.0000    0.0000 C   0  0  0  0  0  0  0  0  0  0  0  0
   -0.7500   -1.2990    0.0000 C   0  0  0  0  0  0  0  0  0  0  0  0
   -3.7500   -3.8971    0.0000 C   0  0  0  0  0  0  0  0  0  0  0  0
   -3.0000   -5.1962    0.0000 C   0  0  0  0  0  0  0  0  0  0  0  0
   -5.2500   -3.8971    0.0000 C   0  0  0  0  0  0  0  0  0  0  0  0
  1  2  2  0
  2  3  1  0
  3  4  2  0
  3  5  1  0
  5  6  1  0
  6  7  1  0
  7  8  1  0
  8  9  1  0
  9 10  2  0
 10 11  1  0
 11 12  2  0
 11 13  1  0
 13 14  1  0
 14 15  2  0
 15 16  1  0
 16 17  2  0
 17 18  1  0
 18 19  2  0
 19 20  1  0
 20 21  1  0
 20 22  1  0
 13 23  1  0
 23 24  2  0
 24 25  1  0
 25 26  1  0
 26 27  2  0
 27 28  1  0
 27 29  1  0
 29 30  2  0
 30 31  1  0
 31 32  2  0
 32 33  1  0
 25 34  2  0
 34 35  1  0
 34 36  1  0
 36 37  2  0
  8 38  1  0
 38 39  1  1
 38 40  1  0
 40  5  1  0
 37  9  1  0
 19 14  1  0
 37 23  1  0
 32 26  1  0
M  END
>  <molecule_chembl_id>  (281) 
CHEMBL4450657

>  <canonical_smiles>  (281) 
C=CC(=O)N1CCN(c2nc(=O)n(-c3ccccc3C(C)C)c3nc(-c4c(O)cccc4F)c(Cl)cc23)[C@@H](C)C1

>  <pchembl_value_mean>  (281) 
7.325

>  <inchi>  (281) 
InChI=1S/C30H29ClFN5O3/c1-5-25(39)35-13-14-36(18(4)16-35)28-20-15-21(31)27(26-22(32)10-8-12-24(26)38)33-29(20)37(30(40)34-28)23-11-7-6-9-19(23)17(2)3/h5-12,15,17-18,38H,1,13-14,16H2,2-4H3/t18-/m0/s1

$$$$

     RDKit          2D

 39 43  0  0  0  0  0  0  0  0999 V2000
   -9.7500   -1.2990    0.0000 C   0  0  0  0  0  0  0  0  0  0  0  0
   -8.2500   -1.2990    0.0000 C   0  0  0  0  0  0  0  0  0  0  0  0
   -7.5000   -2.5981    0.0000 C   0  0  0  0  0  0  0  0  0  0  0  0
   -8.2500   -3.8971    0.0000 O   0  0  0  0  0  0  0  0  0  0  0  0
   -6.0000   -2.5981    0.0000 N   0  0  0  0  0  0  0  0  0  0  0  0
   -5.2500   -1.2990    0.0000 C   0  0  0  0  0  0  0  0  0  0  0  0
   -3.7500   -1.2990    0.0000 C   0  0  0  0  0  0  0  0  0  0  0  0
   -3.0000   -2.5981    0.0000 N   0  0  0  0  0  0  0  0  0  0  0  0
   -1.5000   -2.5981    0.0000 C   0  0  0  0  0  0  0  0  0  0  0  0
   -0.7500   -3.8971    0.0000 N   0  0  0  0  0  0  0  0  0  0  0  0
    0.7500   -3.8971    0.0000 C   0  0  0  0  0  0  0  0  0  0  0  0
    1.1772   -4.9037    0.0000 O   0  0  0  0  0  0  0  0  0  0  0  0
    1.5000   -2.5981    0.0000 N   0  0  0  0  0  0  0  0  0  0  0  0
    3.0000   -2.5981    0.0000 C   0  0  0  0  0  0  0  0  0  0  0  0
    3.7500   -1.2990    0.0000 C   0  0  0  0  0  0  0  0  0  0  0  0
    5.2500   -1.2990    0.0000 C   0  0  0  0  0  0  0  0  0  0  0  0
    6.0000   -2.5981    0.0000 C   0  0  0  0  0  0  0  0  0  0  0  0
    5.2500   -3.8971    0.0000 C   0  0  0  0  0  0  0  0  0  0  0  0
    3.7500   -3.8971    0.0000 C   0  0  0  0  0  0  0  0  0  0  0  0
    3.0000   -5.1962    0.0000 C   0  0  0  0  0  0  0  0  0  0  0  0
    3.7500   -6.4952    0.0000 C   0  0  0  0  0  0  0  0  0  0  0  0
    1.9147   -5.3294    0.0000 C   0  0  0  0  0  0  0  0  0  0  0  0
    0.7500   -1.2990    0.0000 C   0  0  0  0  0  0  0  0  0  0  0  0
    1.5000    0.0000    0.0000 C   0  0  0  0  0  0  0  0  0  0  0  0
    0.7500    1.2990    0.0000 C   0  0  0  0  0  0  0  0  0  0  0  0
    1.5000    2.5981    0.0000 C   0  0  0  0  0  0  0  0  0  0  0  0
    3.0000    2.5981    0.0000 C   0  0  0  0  0  0  0  0  0  0  0  0
    3.7500    3.8971    0.0000 C   0  0  0  0  0  0  0  0  0  0  0  0
    3.0000    5.1962    0.0000 C   0  0  0  0  0  0  0  0  0  0  0  0
    1.5000    5.1962    0.0000 C   0  0  0  0  0  0  0  0  0  0  0  0
    0.7500    3.8971    0.0000 C   0  0  0  0  0  0  0  0  0  0  0  0
   -0.7500    3.8971    0.0000 F   0  0  0  0  0  0  0  0  0  0  0  0
   -0.7500    1.2990    0.0000 C   0  0  0  0  0  0  0  0  0  0  0  0
   -1.5000    2.5981    0.0000 Cl  0  0  0  0  0  0  0  0  0  0  0  0
   -1.5000    0.0000    0.0000 C   0  0  0  0  0  0  0  0  0  0  0  0
   -0.7500   -1.2990    0.0000 C   0  0  0  0  0  0  0  0  0  0  0  0
   -3.7500   -3.8971    0.0000 C   0  0  0  0  0  0  0  0  0  0  0  0
   -3.0000   -5.1962    0.0000 C   0  0  0  0  0  0  0  0  0  0  0  0
   -5.2500   -3.8971    0.0000 C   0  0  0  0  0  0  0  0  0  0  0  0
  1  2  2  0
  2  3  1  0
  3  4  2  0
  3  5  1  0
  5  6  1  0
  6  7  1  0
  7  8  1  0
  8  9  1  0
  9 10  2  0
 10 11  1  0
 11 12  2  0
 11 13  1  0
 13 14  1  0
 14 15  2  0
 15 16  1  0
 16 17  2  0
 17 18  1  0
 18 19  2  0
 19 20  1  0
 20 21  1  0
 20 22  1  0
 13 23  1  0
 23 24  2  0
 24 25  1  0
 25 26  1  0
 26 27  2  0
 27 28  1  0
 28 29  2  0
 29 30  1  0
 30 31  2  0
 31 32  1  0
 25 33  2  0
 33 34  1  0
 33 35  1  0
 35 36  2  0
  8 37  1  0
 37 38  1  1
 37 39  1  0
 39  5  1  0
 36  9  1  0
 19 14  1  0
 36 23  1  0
 31 26  1  0
M  END
>  <molecule_chembl_id>  (282) 
CHEMBL4465551

>  <canonical_smiles>  (282) 
C=CC(=O)N1CCN(c2nc(=O)n(-c3ccccc3C(C)C)c3cc(-c4ccccc4F)c(Cl)cc23)[C@@H](C)C1

>  <pchembl_value_mean>  (282) 
7.33

>  <inchi>  (282) 
InChI=1S/C31H30ClFN4O2/c1-5-29(38)35-14-15-36(20(4)18-35)30-24-16-25(32)23(22-11-6-8-12-26(22)33)17-28(24)37(31(39)34-30)27-13-9-7-10-21(27)19(2)3/h5-13,16-17,19-20H,1,14-15,18H2,2-4H3/t20-/m0/s1

$$$$

     RDKit          2D

 44 51  0  0  0  0  0  0  0  0999 V2000
    3.7500   -1.2990    0.0000 C   0  0  0  0  0  0  0  0  0  0  0  0
    3.0000    0.0000    0.0000 C   0  0  0  0  0  0  0  0  0  0  0  0
    1.5000    0.0000    0.0000 C   0  0  0  0  0  0  0  0  0  0  0  0
    0.7500   -1.2990    0.0000 C   0  0  0  0  0  0  0  0  0  0  0  0
    1.5000   -2.5981    0.0000 F   0  0  0  0  0  0  0  0  0  0  0  0
   -0.7500   -1.2990    0.0000 C   0  0  0  0  0  0  0  0  0  0  0  0
   -1.5000    0.0000    0.0000 C   0  0  0  0  0  0  0  0  0  0  0  0
   -0.7500    1.2990    0.0000 C   0  0  0  0  0  0  0  0  0  0  0  0
   -1.5000    2.5981    0.0000 C   0  0  0  0  0  0  0  0  0  0  0  0
   -0.7500    3.8971    0.0000 C   0  0  0  0  0  0  0  0  0  0  0  0
   -1.5000    5.1962    0.0000 O   0  0  0  0  0  0  0  0  0  0  0  0
    0.7500    3.8971    0.0000 C   0  0  0  0  0  0  0  0  0  0  0  0
    1.5000    2.5981    0.0000 C   0  0  0  0  0  0  0  0  0  0  0  0
    3.0000    2.5981    0.0000 C   0  0  0  0  0  0  0  0  0  0  0  0
    3.7500    1.2990    0.0000 N   0  0  0  0  0  0  0  0  0  0  0  0
    5.2500    1.2990    0.0000 C   0  0  0  0  0  0  0  0  0  0  0  0
    6.0000    2.5981    0.0000 C   0  0  0  0  0  0  0  0  0  0  0  0
    7.5000    2.5981    0.0000 C   0  0  0  0  0  0  0  0  0  0  0  0
    8.2500    1.2990    0.0000 N   0  0  0  0  0  0  0  0  0  0  0  0
    9.7500    1.2990    0.0000 C   0  0  0  0  0  0  0  0  0  0  0  0
   10.5000   -0.0000    0.0000 C   0  0  0  0  0  0  0  0  0  0  0  0
   10.8119   -1.4672    0.0000 C   0  0  0  0  0  0  0  0  0  0  0  0
    9.5128   -2.2172    0.0000 C   0  0  0  0  0  0  0  0  0  0  0  0
    8.3981   -1.2135    0.0000 C   0  0  0  0  0  0  0  0  0  0  0  0
    7.5000   -0.0000    0.0000 C   0  0  0  0  0  0  0  0  0  0  0  0
    9.0082    0.1568    0.0000 N   0  0  0  0  0  0  0  0  0  0  0  0
    8.2500    3.8971    0.0000 C   0  0  0  0  0  0  0  0  0  0  0  0
    7.5000    5.1962    0.0000 C   0  0  0  0  0  0  0  0  0  0  0  0
    8.2500    6.4952    0.0000 O   0  0  0  0  0  0  0  0  0  0  0  0
    9.7500    6.4952    0.0000 C   0  0  0  0  0  0  0  0  0  0  0  0
   10.5000    7.7942    0.0000 C   0  0  0  0  0  0  0  0  0  0  0  0
    9.0328    8.1061    0.0000 C   0  0  0  0  0  0  0  0  0  0  0  0
    8.8760    9.5979    0.0000 C   0  0  0  0  0  0  0  0  0  0  0  0
   10.2463   10.2080    0.0000 C   0  0  0  0  0  0  0  0  0  0  0  0
   11.2500    9.0933    0.0000 N   0  0  0  0  0  0  0  0  0  0  0  0
   12.7172    8.7814    0.0000 C   0  0  0  0  0  0  0  0  0  0  0  0
   12.8740    7.2896    0.0000 C   0  0  0  0  0  0  0  0  0  0  0  0
   14.1731    6.5396    0.0000 F   0  0  0  0  0  0  0  0  0  0  0  0
   11.5037    6.6795    0.0000 C   0  0  0  0  0  0  0  0  0  0  0  0
    6.0000    5.1962    0.0000 N   0  0  0  0  0  0  0  0  0  0  0  0
    5.2500    3.8971    0.0000 C   0  0  0  0  0  0  0  0  0  0  0  0
    3.7500    3.8971    0.0000 C   0  0  0  0  0  0  0  0  0  0  0  0
    3.0000    5.1962    0.0000 F   0  0  0  0  0  0  0  0  0  0  0  0
    0.7500    1.2990    0.0000 C   0  0  0  0  0  0  0  0  0  0  0  0
  1  2  1  0
  2  3  1  0
  3  4  2  0
  4  5  1  0
  4  6  1  0
  6  7  2  0
  7  8  1  0
  8  9  2  0
  9 10  1  0
 10 11  1  0
 10 12  2  0
 12 13  1  0
 13 14  1  0
 14 15  2  0
 15 16  1  0
 16 17  2  0
 17 18  1  0
 18 19  1  0
 19 20  1  0
 20 21  1  0
 21 22  1  0
 22 23  1  0
 23 24  1  0
 24 25  1  0
 24 26  1  0
 18 27  2  0
 27 28  1  0
 28 29  1  0
 29 30  1  0
 31 30  1  1
 31 32  1  0
 32 33  1  0
 33 34  1  0
 34 35  1  0
 35 36  1  0
 36 37  1  0
 37 38  1  6
 37 39  1  0
 28 40  2  0
 40 41  1  0
 41 42  2  0
 42 43  1  0
 13 44  2  0
 44  3  1  0
 44  8  1  0
 42 14  1  0
 41 17  1  0
 25 19  1  0
 35 31  1  0
 26 21  1  0
 39 31  1  0
M  END
>  <molecule_chembl_id>  (283) 
CHEMBL5401145

>  <canonical_smiles>  (283) 
CCc1c(F)ccc2cc(O)cc(-c3ncc4c(N5CC6CCC(C5)N6)cc(OC[C@@]56CCCN5C[C@H](F)C6)nc4c3F)c12

>  <pchembl_value_mean>  (283) 
7.34

>  <inchi>  (283) 
InChI=1S/C34H36F3N5O2/c1-2-24-27(36)7-4-19-10-23(43)11-25(30(19)24)32-31(37)33-26(14-38-32)28(41-16-21-5-6-22(17-41)39-21)12-29(40-33)44-18-34-8-3-9-42(34)15-20(35)13-34/h4,7,10-12,14,20-22,39,43H,2-3,5-6,8-9,13,15-18H2,1H3/t20-,21?,22?,34+/m1/s1

$$$$

     RDKit          2D

 30 32  0  0  0  0  0  0  0  0999 V2000
    3.7500   -1.2990    0.0000 C   0  0  0  0  0  0  0  0  0  0  0  0
    3.0000    0.0000    0.0000 N   0  0  0  0  0  0  0  0  0  0  0  0
    1.5000    0.0000    0.0000 C   0  0  0  0  0  0  0  0  0  0  0  0
    0.7500   -1.2990    0.0000 C   0  0  0  0  0  0  0  0  0  0  0  0
   -0.7500   -1.2990    0.0000 C   0  0  0  0  0  0  0  0  0  0  0  0
   -1.5000   -2.5981    0.0000 N   0  0  0  0  0  0  0  0  0  0  0  0
   -3.0000   -2.5981    0.0000 C   0  0  0  0  0  0  0  0  0  0  0  0
   -3.7500   -3.8971    0.0000 C   0  0  0  0  0  0  0  0  0  0  0  0
   -3.7500   -1.2990    0.0000 C   0  0  0  0  0  0  0  0  0  0  0  0
   -5.2500   -1.2990    0.0000 C   0  0  0  0  0  0  0  0  0  0  0  0
   -6.0000    0.0000    0.0000 C   0  0  0  0  0  0  0  0  0  0  0  0
   -7.5000    0.0000    0.0000 C   0  0  0  0  0  0  0  0  0  0  0  0
   -8.2500   -1.2990    0.0000 C   0  0  0  0  0  0  0  0  0  0  0  0
   -9.7500   -1.2990    0.0000 F   0  0  0  0  0  0  0  0  0  0  0  0
   -7.5000   -2.5981    0.0000 C   0  0  0  0  0  0  0  0  0  0  0  0
   -8.2500   -3.8971    0.0000 N   0  0  0  0  0  0  0  0  0  0  0  0
   -7.5000   -5.1962    0.0000 C   0  0  0  0  0  0  0  0  0  0  0  0
   -6.0000   -5.1962    0.0000 O   0  0  0  0  0  0  0  0  0  0  0  0
   -8.2500   -6.4952    0.0000 N   0  0  0  0  0  0  0  0  0  0  0  0
   -7.5000   -7.7942    0.0000 C   0  0  0  0  0  0  0  0  0  0  0  0
   -8.2500   -9.0933    0.0000 C   0  0  0  0  0  0  0  0  0  0  0  0
   -7.5000  -10.3923    0.0000 C   0  0  0  0  0  0  0  0  0  0  0  0
   -8.7990  -11.1423    0.0000 C   0  0  0  0  0  0  0  0  0  0  0  0
   -6.2010   -9.6423    0.0000 C   0  0  0  0  0  0  0  0  0  0  0  0
   -6.7500  -11.6913    0.0000 C   0  0  0  0  0  0  0  0  0  0  0  0
   -6.0000   -2.5981    0.0000 C   0  0  0  0  0  0  0  0  0  0  0  0
   -3.0000    0.0000    0.0000 C   0  0  0  0  0  0  0  0  0  0  0  0
   -1.5000    0.0000    0.0000 C   0  0  0  0  0  0  0  0  0  0  0  0
   -0.7500    1.2990    0.0000 C   0  0  0  0  0  0  0  0  0  0  0  0
    0.7500    1.2990    0.0000 N   0  0  0  0  0  0  0  0  0  0  0  0
  1  2  1  0
  2  3  1  0
  3  4  2  0
  4  5  1  0
  5  6  2  0
  6  7  1  0
  7  8  1  0
  7  9  2  0
  9 10  1  0
 10 11  2  0
 11 12  1  0
 12 13  2  0
 13 14  1  0
 13 15  1  0
 15 16  1  0
 16 17  1  0
 17 18  2  0
 17 19  1  0
 19 20  1  0
 20 21  1  0
 21 22  1  0
 22 23  1  0
 22 24  1  0
 22 25  1  0
 15 26  2  0
  9 27  1  0
 27 28  2  0
 28 29  1  0
 29 30  2  0
 30  3  1  0
 28  5  1  0
 26 10  1  0
M  END
>  <molecule_chembl_id>  (284) 
CHEMBL3577120

>  <canonical_smiles>  (284) 
CNc1cc2nc(C)c(-c3ccc(F)c(NC(=O)NCCC(C)(C)C)c3)cc2cn1

>  <pchembl_value_mean>  (284) 
7.34

>  <inchi>  (284) 
InChI=1S/C23H28FN5O/c1-14-17(10-16-13-27-21(25-5)12-19(16)28-14)15-6-7-18(24)20(11-15)29-22(30)26-9-8-23(2,3)4/h6-7,10-13H,8-9H2,1-5H3,(H,25,27)(H2,26,29,30)

$$$$

     RDKit          2D

 36 40  0  0  0  0  0  0  0  0999 V2000
   15.4249   -2.0007    0.0000 N   0  0  0  0  0  0  0  0  0  0  0  0
   14.4046   -0.9011    0.0000 C   0  0  0  0  0  0  0  0  0  0  0  0
   14.8468    0.5322    0.0000 O   0  0  0  0  0  0  0  0  0  0  0  0
   12.9422   -1.2349    0.0000 N   0  0  0  0  0  0  0  0  0  0  0  0
   12.5001   -2.6683    0.0000 C   0  0  0  0  0  0  0  0  0  0  0  0
   11.0377   -3.0020    0.0000 C   0  0  0  0  0  0  0  0  0  0  0  0
   10.0175   -1.9025    0.0000 C   0  0  0  0  0  0  0  0  0  0  0  0
    8.5551   -2.2362    0.0000 C   0  0  0  0  0  0  0  0  0  0  0  0
    7.5348   -1.1367    0.0000 C   0  0  0  0  0  0  0  0  0  0  0  0
    7.9769    0.2967    0.0000 O   0  0  0  0  0  0  0  0  0  0  0  0
    6.0724   -1.4704    0.0000 N   0  0  0  0  0  0  0  0  0  0  0  0
    5.0522   -0.3709    0.0000 C   0  0  0  0  0  0  0  0  0  0  0  0
    3.5898   -0.7046    0.0000 C   0  0  0  0  0  0  0  0  0  0  0  0
    3.1476   -2.1380    0.0000 C   0  0  0  0  0  0  0  0  0  0  0  0
    1.6852   -2.4718    0.0000 C   0  0  0  0  0  0  0  0  0  0  0  0
    0.7500   -1.2990    0.0000 C   0  0  0  0  0  0  0  0  0  0  0  0
    1.5000    0.0000    0.0000 N   0  0  0  0  0  0  0  0  0  0  0  0
    0.7500    1.2990    0.0000 C   0  0  0  0  0  0  0  0  0  0  0  0
   -0.7500    1.2990    0.0000 C   0  0  0  0  0  0  0  0  0  0  0  0
   -1.5000    2.5981    0.0000 Br  0  0  0  0  0  0  0  0  0  0  0  0
   -1.5000    0.0000    0.0000 C   0  0  0  0  0  0  0  0  0  0  0  0
   -0.7500   -1.2990    0.0000 C   0  0  0  0  0  0  0  0  0  0  0  0
   -1.6852   -2.4718    0.0000 C   0  0  0  0  0  0  0  0  0  0  0  0
   -1.3515   -3.9342    0.0000 C   0  0  0  0  0  0  0  0  0  0  0  0
    0.0000   -4.5850    0.0000 C   0  0  0  0  0  0  0  0  0  0  0  0
   -0.1121   -6.0808    0.0000 C   0  0  0  0  0  0  0  0  0  0  0  0
    1.1273   -6.9258    0.0000 C   0  0  0  0  0  0  0  0  0  0  0  0
    1.0152   -8.4216    0.0000 Cl  0  0  0  0  0  0  0  0  0  0  0  0
    2.4787   -6.2750    0.0000 C   0  0  0  0  0  0  0  0  0  0  0  0
    2.5908   -4.7792    0.0000 C   0  0  0  0  0  0  0  0  0  0  0  0
    3.9423   -4.1283    0.0000 Br  0  0  0  0  0  0  0  0  0  0  0  0
    1.3515   -3.9342    0.0000 C   0  0  0  0  0  0  0  0  0  0  0  0
    4.1679   -3.2376    0.0000 C   0  0  0  0  0  0  0  0  0  0  0  0
    5.6303   -2.9038    0.0000 C   0  0  0  0  0  0  0  0  0  0  0  0
   10.4596   -0.4691    0.0000 C   0  0  0  0  0  0  0  0  0  0  0  0
   11.9220   -0.1353    0.0000 C   0  0  0  0  0  0  0  0  0  0  0  0
  1  2  1  0
  2  3  2  0
  2  4  1  0
  4  5  1  0
  5  6  1  0
  6  7  1  0
  7  8  1  0
  8  9  1  0
  9 10  2  0
  9 11  1  0
 11 12  1  0
 12 13  1  0
 13 14  1  0
 15 14  1  6
 15 16  1  0
 16 17  2  0
 17 18  1  0
 18 19  2  0
 19 20  1  0
 19 21  1  0
 21 22  2  0
 22 23  1  0
 23 24  1  0
 24 25  1  0
 25 26  2  0
 26 27  1  0
 27 28  1  0
 27 29  2  0
 29 30  1  0
 30 31  1  0
 30 32  2  0
 14 33  1  0
 33 34  1  0
  7 35  1  0
 35 36  1  0
 36  4  1  0
 34 11  1  0
 32 15  1  0
 22 16  1  0
 32 25  1  0
M  END
>  <molecule_chembl_id>  (285) 
CHEMBL298734

>  <canonical_smiles>  (285) 
NC(=O)N1CCC(CC(=O)N2CCC([C@H]3c4ncc(Br)cc4CCc4cc(Cl)cc(Br)c43)CC2)CC1

>  <pchembl_value_mean>  (285) 
7.4

>  <inchi>  (285) 
InChI=1S/C27H31Br2ClN4O2/c28-20-12-19-2-1-18-13-21(30)14-22(29)24(18)25(26(19)32-15-20)17-5-9-33(10-6-17)23(35)11-16-3-7-34(8-4-16)27(31)36/h12-17,25H,1-11H2,(H2,31,36)/t25-/m1/s1

$$$$

     RDKit          2D

 42 49  0  0  0  0  0  0  0  0999 V2000
   -1.5000   -5.1962    0.0000 O   0  0  0  0  0  0  0  0  0  0  0  0
   -0.7500   -3.8971    0.0000 C   0  0  0  0  0  0  0  0  0  0  0  0
    0.7500   -3.8971    0.0000 C   0  0  0  0  0  0  0  0  0  0  0  0
    1.5000   -2.5981    0.0000 C   0  0  0  0  0  0  0  0  0  0  0  0
    3.0000   -2.5981    0.0000 C   0  0  0  0  0  0  0  0  0  0  0  0
    3.7500   -1.2990    0.0000 N   0  0  0  0  0  0  0  0  0  0  0  0
    5.2500   -1.2990    0.0000 C   0  0  0  0  0  0  0  0  0  0  0  0
    6.0000   -2.5981    0.0000 C   0  0  0  0  0  0  0  0  0  0  0  0
    7.5000   -2.5981    0.0000 C   0  0  0  0  0  0  0  0  0  0  0  0
    8.2500   -1.2990    0.0000 N   0  0  0  0  0  0  0  0  0  0  0  0
    9.7500   -1.2990    0.0000 C   0  0  0  0  0  0  0  0  0  0  0  0
   10.5000   -0.0000    0.0000 C   0  0  0  0  0  0  0  0  0  0  0  0
   10.8119    1.4672    0.0000 C   0  0  0  0  0  0  0  0  0  0  0  0
    9.5128    2.2172    0.0000 C   0  0  0  0  0  0  0  0  0  0  0  0
    8.3981    1.2135    0.0000 C   0  0  0  0  0  0  0  0  0  0  0  0
    7.5000    0.0000    0.0000 C   0  0  0  0  0  0  0  0  0  0  0  0
    9.0082   -0.1568    0.0000 N   0  0  0  0  0  0  0  0  0  0  0  0
    8.2500   -3.8971    0.0000 C   0  0  0  0  0  0  0  0  0  0  0  0
    7.5000   -5.1962    0.0000 C   0  0  0  0  0  0  0  0  0  0  0  0
    8.2500   -6.4952    0.0000 O   0  0  0  0  0  0  0  0  0  0  0  0
    7.5000   -7.7942    0.0000 C   0  0  0  0  0  0  0  0  0  0  0  0
    8.2500   -9.0933    0.0000 C   0  0  0  0  0  0  0  0  0  0  0  0
    9.2537   -7.9785    0.0000 C   0  0  0  0  0  0  0  0  0  0  0  0
   10.6240   -8.5887    0.0000 C   0  0  0  0  0  0  0  0  0  0  0  0
   10.4672  -10.0804    0.0000 C   0  0  0  0  0  0  0  0  0  0  0  0
    9.0000  -10.3923    0.0000 N   0  0  0  0  0  0  0  0  0  0  0  0
    7.9963  -11.5070    0.0000 C   0  0  0  0  0  0  0  0  0  0  0  0
    6.6260  -10.8969    0.0000 C   0  0  0  0  0  0  0  0  0  0  0  0
    5.3269  -11.6469    0.0000 F   0  0  0  0  0  0  0  0  0  0  0  0
    6.7828   -9.4051    0.0000 C   0  0  0  0  0  0  0  0  0  0  0  0
    6.0000   -5.1962    0.0000 N   0  0  0  0  0  0  0  0  0  0  0  0
    5.2500   -3.8971    0.0000 C   0  0  0  0  0  0  0  0  0  0  0  0
    3.7500   -3.8971    0.0000 C   0  0  0  0  0  0  0  0  0  0  0  0
    3.0000   -5.1962    0.0000 F   0  0  0  0  0  0  0  0  0  0  0  0
    0.7500   -1.2990    0.0000 C   0  0  0  0  0  0  0  0  0  0  0  0
    1.5000    0.0000    0.0000 C   0  0  0  0  0  0  0  0  0  0  0  0
    3.0000    0.0000    0.0000 F   0  0  0  0  0  0  0  0  0  0  0  0
    0.7500    1.2990    0.0000 C   0  0  0  0  0  0  0  0  0  0  0  0
   -0.7500    1.2990    0.0000 C   0  0  0  0  0  0  0  0  0  0  0  0
   -1.5000    0.0000    0.0000 C   0  0  0  0  0  0  0  0  0  0  0  0
   -0.7500   -1.2990    0.0000 C   0  0  0  0  0  0  0  0  0  0  0  0
   -1.5000   -2.5981    0.0000 C   0  0  0  0  0  0  0  0  0  0  0  0
  1  2  1  0
  2  3  2  0
  3  4  1  0
  4  5  1  0
  5  6  2  0
  6  7  1  0
  7  8  2  0
  8  9  1  0
  9 10  1  0
 10 11  1  0
 11 12  1  0
 12 13  1  0
 13 14  1  0
 14 15  1  0
 15 16  1  0
 15 17  1  0
  9 18  2  0
 18 19  1  0
 19 20  1  0
 20 21  1  0
 22 21  1  1
 22 23  1  0
 23 24  1  0
 24 25  1  0
 25 26  1  0
 26 27  1  0
 27 28  1  0
 28 29  1  6
 28 30  1  0
 19 31  2  0
 31 32  1  0
 32 33  2  0
 33 34  1  0
  4 35  2  0
 35 36  1  0
 36 37  1  0
 36 38  2  0
 38 39  1  0
 39 40  2  0
 40 41  1  0
 41 42  2  0
 42  2  1  0
 33  5  1  0
 41 35  1  0
 32  8  1  0
 16 10  1  0
 26 22  1  0
 17 12  1  0
 30 22  1  0
M  END
>  <molecule_chembl_id>  (286) 
CHEMBL5398980

>  <canonical_smiles>  (286) 
Oc1cc(-c2ncc3c(N4CC5CCC(C4)N5)cc(OC[C@@]45CCCN4C[C@H](F)C5)nc3c2F)c2c(F)cccc2c1

>  <pchembl_value_mean>  (286) 
7.4

>  <inchi>  (286) 
InChI=1S/C32H32F3N5O2/c33-19-12-32(7-2-8-40(32)14-19)17-42-27-11-26(39-15-20-5-6-21(16-39)37-20)24-13-36-30(29(35)31(24)38-27)23-10-22(41)9-18-3-1-4-25(34)28(18)23/h1,3-4,9-11,13,19-21,37,41H,2,5-8,12,14-17H2/t19-,20?,21?,32+/m1/s1

$$$$

     RDKit          2D

 39 45  0  0  0  0  0  0  0  0999 V2000
   -0.2796  -14.2769    0.0000 C   0  0  0  0  0  0  0  0  0  0  0  0
   -0.1228  -12.7852    0.0000 C   0  0  0  0  0  0  0  0  0  0  0  0
    1.2476  -12.1751    0.0000 C   0  0  0  0  0  0  0  0  0  0  0  0
    2.4611  -13.0567    0.0000 O   0  0  0  0  0  0  0  0  0  0  0  0
    1.4043  -10.6833    0.0000 N   0  0  0  0  0  0  0  0  0  0  0  0
    0.4604   -9.5176    0.0000 C   0  0  0  0  0  0  0  0  0  0  0  0
    1.6261   -8.5736    0.0000 C   0  0  0  0  0  0  0  0  0  0  0  0
    2.7918   -7.6296    0.0000 C   0  0  0  0  0  0  0  0  0  0  0  0
    1.8478   -6.4639    0.0000 C   0  0  0  0  0  0  0  0  0  0  0  0
    2.0046   -4.9721    0.0000 N   0  0  0  0  0  0  0  0  0  0  0  0
    0.8899   -3.9684    0.0000 N   0  0  0  0  0  0  0  0  0  0  0  0
    1.5000   -2.5981    0.0000 C   0  0  0  0  0  0  0  0  0  0  0  0
    0.7500   -1.2990    0.0000 C   0  0  0  0  0  0  0  0  0  0  0  0
    1.5000    0.0000    0.0000 C   0  0  0  0  0  0  0  0  0  0  0  0
    0.7500    1.2990    0.0000 C   0  0  0  0  0  0  0  0  0  0  0  0
   -0.7500    1.2990    0.0000 C   0  0  0  0  0  0  0  0  0  0  0  0
   -1.5000    0.0000    0.0000 C   0  0  0  0  0  0  0  0  0  0  0  0
   -0.7500   -1.2990    0.0000 C   0  0  0  0  0  0  0  0  0  0  0  0
   -2.9672    0.3119    0.0000 O   0  0  0  0  0  0  0  0  0  0  0  0
   -3.1240    1.8037    0.0000 C   0  0  0  0  0  0  0  0  0  0  0  0
   -4.4231    2.5537    0.0000 C   0  0  0  0  0  0  0  0  0  0  0  0
   -4.4231    4.0537    0.0000 O   0  0  0  0  0  0  0  0  0  0  0  0
   -1.7537    2.4138    0.0000 C   0  0  0  0  0  0  0  0  0  0  0  0
    2.9918   -2.7549    0.0000 C   0  0  0  0  0  0  0  0  0  0  0  0
    3.9955   -1.6402    0.0000 C   0  0  0  0  0  0  0  0  0  0  0  0
    5.4627   -1.9520    0.0000 C   0  0  0  0  0  0  0  0  0  0  0  0
    5.9262   -3.3786    0.0000 Cl  0  0  0  0  0  0  0  0  0  0  0  0
    6.4664   -0.8373    0.0000 C   0  0  0  0  0  0  0  0  0  0  0  0
    7.9336   -1.1492    0.0000 C   0  0  0  0  0  0  0  0  0  0  0  0
    6.0029    0.5893    0.0000 C   0  0  0  0  0  0  0  0  0  0  0  0
    4.5356    0.9012    0.0000 C   0  0  0  0  0  0  0  0  0  0  0  0
    3.7856    2.2002    0.0000 N   0  0  0  0  0  0  0  0  0  0  0  0
    2.3184    1.8883    0.0000 N   0  0  0  0  0  0  0  0  0  0  0  0
    2.1616    0.3965    0.0000 C   0  0  0  0  0  0  0  0  0  0  0  0
    3.5320   -0.2136    0.0000 C   0  0  0  0  0  0  0  0  0  0  0  0
    3.3037   -4.2221    0.0000 C   0  0  0  0  0  0  0  0  0  0  0  0
    4.6740   -4.8322    0.0000 C   0  0  0  0  0  0  0  0  0  0  0  0
    0.6821   -7.4079    0.0000 C   0  0  0  0  0  0  0  0  0  0  0  0
    2.5701   -9.7393    0.0000 C   0  0  0  0  0  0  0  0  0  0  0  0
  1  2  2  0
  2  3  1  0
  3  4  2  0
  3  5  1  0
  5  6  1  0
  6  7  1  0
  7  8  1  0
  8  9  1  0
  9 10  1  0
 10 11  1  0
 11 12  2  0
 12 13  1  0
 13 14  2  0
 14 15  1  0
 15 16  2  0
 16 17  1  0
 17 18  2  0
 17 19  1  0
 19 20  1  0
 20 21  1  0
 21 22  1  0
 20 23  1  0
 12 24  1  0
 24 25  1  0
 25 26  2  0
 26 27  1  0
 26 28  1  0
 28 29  1  0
 28 30  2  0
 30 31  1  0
 31 32  1  0
 32 33  1  0
 33 34  2  0
 34 35  1  0
 24 36  2  0
 36 37  1  0
  9 38  1  0
  7 39  1  0
 39  5  1  0
 38  7  1  0
 36 10  1  0
 18 13  1  0
 35 25  1  0
 23 16  1  0
 35 31  2  0
M  END
>  <molecule_chembl_id>  (287) 
CHEMBL5078639

>  <canonical_smiles>  (287) 
C=CC(=O)N1CC2(CC(n3nc(-c4ccc5c(c4)OC(CO)C5)c(-c4c(Cl)c(C)cc5[nH]ncc45)c3C)C2)C1

>  <pchembl_value_mean>  (287) 
7.42

>  <inchi>  (287) 
InChI=1S/C30H30ClN5O3/c1-4-25(38)35-14-30(15-35)10-20(11-30)36-17(3)26(27-22-12-32-33-23(22)7-16(2)28(27)31)29(34-36)19-6-5-18-8-21(13-37)39-24(18)9-19/h4-7,9,12,20-21,37H,1,8,10-11,13-15H2,2-3H3,(H,32,33)

$$$$

     RDKit          2D

 41 45  0  0  0  0  0  0  0  0999 V2000
   -9.7500   -1.2990    0.0000 C   0  0  0  0  0  0  0  0  0  0  0  0
   -8.2500   -1.2990    0.0000 C   0  0  0  0  0  0  0  0  0  0  0  0
   -7.5000   -2.5981    0.0000 C   0  0  0  0  0  0  0  0  0  0  0  0
   -8.2500   -3.8971    0.0000 O   0  0  0  0  0  0  0  0  0  0  0  0
   -6.0000   -2.5981    0.0000 N   0  0  0  0  0  0  0  0  0  0  0  0
   -5.2500   -1.2990    0.0000 C   0  0  0  0  0  0  0  0  0  0  0  0
   -3.7500   -1.2990    0.0000 C   0  0  0  0  0  0  0  0  0  0  0  0
   -3.0000   -2.5981    0.0000 N   0  0  0  0  0  0  0  0  0  0  0  0
   -1.5000   -2.5981    0.0000 C   0  0  0  0  0  0  0  0  0  0  0  0
   -0.7500   -3.8971    0.0000 N   0  0  0  0  0  0  0  0  0  0  0  0
    0.7500   -3.8971    0.0000 C   0  0  0  0  0  0  0  0  0  0  0  0
    1.1772   -4.9037    0.0000 O   0  0  0  0  0  0  0  0  0  0  0  0
    1.5000   -2.5981    0.0000 N   0  0  0  0  0  0  0  0  0  0  0  0
    3.0000   -2.5981    0.0000 C   0  0  0  0  0  0  0  0  0  0  0  0
    3.7500   -1.2990    0.0000 C   0  0  0  0  0  0  0  0  0  0  0  0
    3.0000   -0.0000    0.0000 C   0  0  0  0  0  0  0  0  0  0  0  0
    5.2500   -1.2990    0.0000 N   0  0  0  0  0  0  0  0  0  0  0  0
    6.0000   -2.5981    0.0000 C   0  0  0  0  0  0  0  0  0  0  0  0
    5.2500   -3.8971    0.0000 N   0  0  0  0  0  0  0  0  0  0  0  0
    3.7500   -3.8971    0.0000 C   0  0  0  0  0  0  0  0  0  0  0  0
    3.0000   -5.1962    0.0000 C   0  0  0  0  0  0  0  0  0  0  0  0
    3.7500   -6.4952    0.0000 C   0  0  0  0  0  0  0  0  0  0  0  0
    1.9147   -5.3294    0.0000 C   0  0  0  0  0  0  0  0  0  0  0  0
    0.7500   -1.2990    0.0000 C   0  0  0  0  0  0  0  0  0  0  0  0
    1.5000    0.0000    0.0000 N   0  0  0  0  0  0  0  0  0  0  0  0
    0.7500    1.2990    0.0000 C   0  0  0  0  0  0  0  0  0  0  0  0
    1.5000    2.5981    0.0000 C   0  0  0  0  0  0  0  0  0  0  0  0
    3.0000    2.5981    0.0000 C   0  0  0  0  0  0  0  0  0  0  0  0
    3.7500    1.2990    0.0000 O   0  0  0  0  0  0  0  0  0  0  0  0
    3.7500    3.8971    0.0000 C   0  0  0  0  0  0  0  0  0  0  0  0
    3.0000    5.1962    0.0000 C   0  0  0  0  0  0  0  0  0  0  0  0
    1.5000    5.1962    0.0000 C   0  0  0  0  0  0  0  0  0  0  0  0
    0.7500    3.8971    0.0000 C   0  0  0  0  0  0  0  0  0  0  0  0
   -0.7500    3.8971    0.0000 F   0  0  0  0  0  0  0  0  0  0  0  0
   -0.7500    1.2990    0.0000 C   0  0  0  0  0  0  0  0  0  0  0  0
   -1.5000    2.5981    0.0000 Cl  0  0  0  0  0  0  0  0  0  0  0  0
   -1.5000    0.0000    0.0000 C   0  0  0  0  0  0  0  0  0  0  0  0
   -0.7500   -1.2990    0.0000 C   0  0  0  0  0  0  0  0  0  0  0  0
   -3.7500   -3.8971    0.0000 C   0  0  0  0  0  0  0  0  0  0  0  0
   -3.0000   -5.1962    0.0000 C   0  0  0  0  0  0  0  0  0  0  0  0
   -5.2500   -3.8971    0.0000 C   0  0  0  0  0  0  0  0  0  0  0  0
  1  2  2  0
  2  3  1  0
  3  4  2  0
  3  5  1  0
  5  6  1  0
  6  7  1  0
  7  8  1  0
  8  9  1  0
  9 10  2  0
 10 11  1  0
 11 12  2  0
 11 13  1  0
 13 14  1  0
 14 15  2  0
 15 16  1  0
 15 17  1  0
 17 18  2  0
 18 19  1  0
 19 20  2  0
 20 21  1  0
 21 22  1  0
 21 23  1  0
 13 24  1  0
 24 25  2  0
 25 26  1  0
 26 27  1  0
 27 28  2  0
 28 29  1  0
 28 30  1  0
 30 31  2  0
 31 32  1  0
 32 33  2  0
 33 34  1  0
 26 35  2  0
 35 36  1  0
 35 37  1  0
 37 38  2  0
  8 39  1  0
 39 40  1  1
 39 41  1  0
 41  5  1  0
 38  9  1  0
 20 14  1  0
 38 24  1  0
 33 27  1  0
M  END
>  <molecule_chembl_id>  (288) 
CHEMBL4527861

>  <canonical_smiles>  (288) 
C=CC(=O)N1CCN(c2nc(=O)n(-c3c(C)ncnc3C(C)C)c3nc(-c4c(O)cccc4F)c(Cl)cc23)[C@@H](C)C1

>  <pchembl_value_mean>  (288) 
7.42

>  <inchi>  (288) 
InChI=1S/C29H29ClFN7O3/c1-6-22(40)36-10-11-37(16(4)13-36)27-18-12-19(30)25(23-20(31)8-7-9-21(23)39)34-28(18)38(29(41)35-27)26-17(5)32-14-33-24(26)15(2)3/h6-9,12,14-16,39H,1,10-11,13H2,2-5H3/t16-/m0/s1

$$$$

     RDKit          2D

177181  0  0  0  0  0  0  0  0999 V2000
    7.4592   15.3348    0.0000 C   0  0  0  0  0  0  0  0  0  0  0  0
    6.1077   14.6840    0.0000 C   0  0  0  0  0  0  0  0  0  0  0  0
    5.9956   13.1882    0.0000 C   0  0  0  0  0  0  0  0  0  0  0  0
    7.2350   12.3432    0.0000 C   0  0  0  0  0  0  0  0  0  0  0  0
    4.6442   12.5373    0.0000 C   0  0  0  0  0  0  0  0  0  0  0  0
    5.1713   11.1330    0.0000 N   0  0  0  0  0  0  0  0  0  0  0  0
    5.4391    9.6571    0.0000 C   0  0  0  0  0  0  0  0  0  0  0  0
    6.9331    9.7915    0.0000 O   0  0  0  0  0  0  0  0  0  0  0  0
    5.4391    8.1571    0.0000 C   0  0  0  0  0  0  0  0  0  0  0  0
    6.9331    8.0226    0.0000 C   0  0  0  0  0  0  0  0  0  0  0  0
    7.5636    6.6616    0.0000 C   0  0  0  0  0  0  0  0  0  0  0  0
    6.7002    5.4350    0.0000 C   0  0  0  0  0  0  0  0  0  0  0  0
    7.3307    4.0740    0.0000 C   0  0  0  0  0  0  0  0  0  0  0  0
    8.8247    3.9395    0.0000 C   0  0  0  0  0  0  0  0  0  0  0  0
    9.4552    2.5785    0.0000 O   0  0  0  0  0  0  0  0  0  0  0  0
    9.6881    5.1661    0.0000 C   0  0  0  0  0  0  0  0  0  0  0  0
    9.0576    6.5271    0.0000 C   0  0  0  0  0  0  0  0  0  0  0  0
    5.1713    6.6812    0.0000 N   0  0  0  0  0  0  0  0  0  0  0  0
    4.6442    5.2768    0.0000 C   0  0  0  0  0  0  0  0  0  0  0  0
    5.9956    4.6260    0.0000 O   0  0  0  0  0  0  0  0  0  0  0  0
    3.8748    3.9892    0.0000 C   0  0  0  0  0  0  0  0  0  0  0  0
    5.0884    3.1075    0.0000 C   0  0  0  0  0  0  0  0  0  0  0  0
    4.9316    1.6157    0.0000 C   0  0  0  0  0  0  0  0  0  0  0  0
    6.1451    0.7340    0.0000 C   0  0  0  0  0  0  0  0  0  0  0  0
    3.5613    1.0056    0.0000 C   0  0  0  0  0  0  0  0  0  0  0  0
    2.8879    2.8596    0.0000 N   0  0  0  0  0  0  0  0  0  0  0  0
    1.7152    1.9243    0.0000 C   0  0  0  0  0  0  0  0  0  0  0  0
    2.5415    0.6725    0.0000 O   0  0  0  0  0  0  0  0  0  0  0  0
    0.3943    1.2135    0.0000 C   0  0  0  0  0  0  0  0  0  0  0  0
    1.2760    0.0000    0.0000 C   0  0  0  0  0  0  0  0  0  0  0  0
    0.3943   -1.2135    0.0000 C   0  0  0  0  0  0  0  0  0  0  0  0
   -1.0323   -0.7500    0.0000 C   0  0  0  0  0  0  0  0  0  0  0  0
   -1.0323    0.7500    0.0000 N   0  0  0  0  0  0  0  0  0  0  0  0
   -2.5187    0.5487    0.0000 C   0  0  0  0  0  0  0  0  0  0  0  0
   -2.4514   -0.9498    0.0000 O   0  0  0  0  0  0  0  0  0  0  0  0
   -4.0172    0.6159    0.0000 C   0  0  0  0  0  0  0  0  0  0  0  0
   -4.2186   -0.8705    0.0000 N   0  0  0  0  0  0  0  0  0  0  0  0
   -5.6065   -1.4393    0.0000 C   0  0  0  0  0  0  0  0  0  0  0  0
   -6.7931   -0.5217    0.0000 O   0  0  0  0  0  0  0  0  0  0  0  0
   -5.8079   -2.9257    0.0000 C   0  0  0  0  0  0  0  0  0  0  0  0
   -7.1958   -3.4946    0.0000 C   0  0  0  0  0  0  0  0  0  0  0  0
   -7.3972   -4.9810    0.0000 C   0  0  0  0  0  0  0  0  0  0  0  0
   -8.7851   -5.5498    0.0000 C   0  0  0  0  0  0  0  0  0  0  0  0
   -8.9865   -7.0363    0.0000 N   0  0  0  0  0  0  0  0  0  0  0  0
  -10.3744   -7.6051    0.0000 C   0  0  0  0  0  0  0  0  0  0  0  0
  -11.5610   -6.6875    0.0000 N   0  0  0  0  0  0  0  0  0  0  0  0
  -10.5758   -9.0915    0.0000 N   0  0  0  0  0  0  0  0  0  0  0  0
   -4.6213   -3.8433    0.0000 N   0  0  0  0  0  0  0  0  0  0  0  0
   -4.8226   -5.3298    0.0000 C   0  0  0  0  0  0  0  0  0  0  0  0
   -6.2106   -5.8986    0.0000 O   0  0  0  0  0  0  0  0  0  0  0  0
   -3.6360   -6.2473    0.0000 C   0  0  0  0  0  0  0  0  0  0  0  0
   -3.8373   -7.7338    0.0000 C   0  0  0  0  0  0  0  0  0  0  0  0
   -2.6507   -8.6513    0.0000 C   0  0  0  0  0  0  0  0  0  0  0  0
   -2.8521  -10.1378    0.0000 C   0  0  0  0  0  0  0  0  0  0  0  0
   -1.6655  -11.0554    0.0000 N   0  0  0  0  0  0  0  0  0  0  0  0
   -1.8668  -12.5418    0.0000 C   0  0  0  0  0  0  0  0  0  0  0  0
   -3.2548  -13.1106    0.0000 N   0  0  0  0  0  0  0  0  0  0  0  0
   -0.6802  -13.4594    0.0000 N   0  0  0  0  0  0  0  0  0  0  0  0
   -2.2480   -5.6785    0.0000 N   0  0  0  0  0  0  0  0  0  0  0  0
   -1.0614   -6.5961    0.0000 C   0  0  0  0  0  0  0  0  0  0  0  0
   -1.2628   -8.0825    0.0000 O   0  0  0  0  0  0  0  0  0  0  0  0
    0.3265   -6.0272    0.0000 C   0  0  0  0  0  0  0  0  0  0  0  0
    0.5279   -4.5408    0.0000 C   0  0  0  0  0  0  0  0  0  0  0  0
    1.9158   -3.9720    0.0000 C   0  0  0  0  0  0  0  0  0  0  0  0
    2.1172   -2.4856    0.0000 C   0  0  0  0  0  0  0  0  0  0  0  0
    3.5051   -1.9167    0.0000 N   0  0  0  0  0  0  0  0  0  0  0  0
    4.6917   -2.8343    0.0000 C   0  0  0  0  0  0  0  0  0  0  0  0
    6.0797   -2.2655    0.0000 N   0  0  0  0  0  0  0  0  0  0  0  0
    4.4904   -4.3207    0.0000 N   0  0  0  0  0  0  0  0  0  0  0  0
    1.5131   -6.9448    0.0000 N   0  0  0  0  0  0  0  0  0  0  0  0
    2.9011   -6.3760    0.0000 C   0  0  0  0  0  0  0  0  0  0  0  0
    3.1024   -4.8896    0.0000 O   0  0  0  0  0  0  0  0  0  0  0  0
    4.0877   -7.2936    0.0000 C   0  0  0  0  0  0  0  0  0  0  0  0
    5.4757   -6.7247    0.0000 C   0  0  0  0  0  0  0  0  0  0  0  0
    6.6623   -7.6423    0.0000 C   0  0  0  0  0  0  0  0  0  0  0  0
    8.0502   -7.0735    0.0000 C   0  0  0  0  0  0  0  0  0  0  0  0
    8.2516   -5.5871    0.0000 N   0  0  0  0  0  0  0  0  0  0  0  0
    9.6395   -5.0182    0.0000 C   0  0  0  0  0  0  0  0  0  0  0  0
   10.8261   -5.9358    0.0000 N   0  0  0  0  0  0  0  0  0  0  0  0
    9.8409   -3.5318    0.0000 N   0  0  0  0  0  0  0  0  0  0  0  0
    3.8863   -8.7800    0.0000 N   0  0  0  0  0  0  0  0  0  0  0  0
    2.4984   -9.3488    0.0000 C   0  0  0  0  0  0  0  0  0  0  0  0
    2.2970  -10.8353    0.0000 C   0  0  0  0  0  0  0  0  0  0  0  0
    1.3118   -8.4313    0.0000 O   0  0  0  0  0  0  0  0  0  0  0  0
   -5.4796    0.9497    0.0000 C   0  0  0  0  0  0  0  0  0  0  0  0
   -6.8589    1.5393    0.0000 S   0  0  0  0  0  0  0  0  0  0  0  0
   -8.1107    2.3656    0.0000 S   0  0  0  0  0  0  0  0  0  0  0  0
   -9.1949    3.4022    0.0000 C   0  0  0  0  0  0  0  0  0  0  0  0
  -10.0766    4.6157    0.0000 C   0  0  0  0  0  0  0  0  0  0  0  0
  -11.3643    3.8464    0.0000 C   0  0  0  0  0  0  0  0  0  0  0  0
  -11.3418    2.3466    0.0000 O   0  0  0  0  0  0  0  0  0  0  0  0
  -12.6744    4.5769    0.0000 N   0  0  0  0  0  0  0  0  0  0  0  0
  -13.9621    3.8075    0.0000 C   0  0  0  0  0  0  0  0  0  0  0  0
  -15.2722    4.5380    0.0000 C   0  0  0  0  0  0  0  0  0  0  0  0
  -16.5599    3.7687    0.0000 C   0  0  0  0  0  0  0  0  0  0  0  0
  -17.8700    4.4991    0.0000 C   0  0  0  0  0  0  0  0  0  0  0  0
  -19.1576    3.7298    0.0000 N   0  0  0  0  0  0  0  0  0  0  0  0
  -20.4678    4.4603    0.0000 C   0  0  0  0  0  0  0  0  0  0  0  0
  -20.4902    5.9601    0.0000 N   0  0  0  0  0  0  0  0  0  0  0  0
  -21.7554    3.6909    0.0000 N   0  0  0  0  0  0  0  0  0  0  0  0
  -13.9396    2.3077    0.0000 C   0  0  0  0  0  0  0  0  0  0  0  0
  -12.6295    1.5772    0.0000 O   0  0  0  0  0  0  0  0  0  0  0  0
  -15.2273    1.5383    0.0000 N   0  0  0  0  0  0  0  0  0  0  0  0
  -15.2049    0.0385    0.0000 C   0  0  0  0  0  0  0  0  0  0  0  0
  -13.8948   -0.6920    0.0000 C   0  0  0  0  0  0  0  0  0  0  0  0
  -13.8723   -2.1918    0.0000 C   0  0  0  0  0  0  0  0  0  0  0  0
  -12.5622   -2.9223    0.0000 C   0  0  0  0  0  0  0  0  0  0  0  0
  -12.5398   -4.4221    0.0000 N   0  0  0  0  0  0  0  0  0  0  0  0
  -13.8274   -5.1915    0.0000 C   0  0  0  0  0  0  0  0  0  0  0  0
  -13.8050   -6.6913    0.0000 N   0  0  0  0  0  0  0  0  0  0  0  0
  -15.1376   -4.4610    0.0000 N   0  0  0  0  0  0  0  0  0  0  0  0
  -16.4925   -0.7308    0.0000 C   0  0  0  0  0  0  0  0  0  0  0  0
  -17.8027   -0.0004    0.0000 O   0  0  0  0  0  0  0  0  0  0  0  0
  -16.4701   -2.2307    0.0000 N   0  0  0  0  0  0  0  0  0  0  0  0
  -17.7578   -3.0000    0.0000 C   0  0  0  0  0  0  0  0  0  0  0  0
  -17.7353   -4.4999    0.0000 C   0  0  0  0  0  0  0  0  0  0  0  0
  -16.4252   -5.2303    0.0000 C   0  0  0  0  0  0  0  0  0  0  0  0
  -16.4028   -6.7302    0.0000 C   0  0  0  0  0  0  0  0  0  0  0  0
  -15.0927   -7.4607    0.0000 N   0  0  0  0  0  0  0  0  0  0  0  0
  -15.0702   -8.9605    0.0000 C   0  0  0  0  0  0  0  0  0  0  0  0
  -16.3579   -9.7298    0.0000 N   0  0  0  0  0  0  0  0  0  0  0  0
  -13.7601   -9.6910    0.0000 N   0  0  0  0  0  0  0  0  0  0  0  0
  -19.0679   -2.2695    0.0000 C   0  0  0  0  0  0  0  0  0  0  0  0
  -19.0903   -0.7697    0.0000 O   0  0  0  0  0  0  0  0  0  0  0  0
  -20.3556   -3.0389    0.0000 N   0  0  0  0  0  0  0  0  0  0  0  0
  -21.6657   -2.3084    0.0000 C   0  0  0  0  0  0  0  0  0  0  0  0
  -22.9533   -3.0778    0.0000 C   0  0  0  0  0  0  0  0  0  0  0  0
  -24.2635   -2.3473    0.0000 C   0  0  0  0  0  0  0  0  0  0  0  0
  -25.5511   -3.1166    0.0000 C   0  0  0  0  0  0  0  0  0  0  0  0
  -26.8612   -2.3861    0.0000 N   0  0  0  0  0  0  0  0  0  0  0  0
  -28.1489   -3.1555    0.0000 C   0  0  0  0  0  0  0  0  0  0  0  0
  -28.1265   -4.6553    0.0000 N   0  0  0  0  0  0  0  0  0  0  0  0
  -29.4590   -2.4250    0.0000 N   0  0  0  0  0  0  0  0  0  0  0  0
  -21.6881   -0.8086    0.0000 C   0  0  0  0  0  0  0  0  0  0  0  0
  -20.4004   -0.0392    0.0000 N   0  0  0  0  0  0  0  0  0  0  0  0
  -22.9982   -0.0781    0.0000 O   0  0  0  0  0  0  0  0  0  0  0  0
  -10.7274    5.9672    0.0000 N   0  0  0  0  0  0  0  0  0  0  0  0
  -11.1265    7.4131    0.0000 C   0  0  0  0  0  0  0  0  0  0  0  0
  -12.6024    7.1453    0.0000 O   0  0  0  0  0  0  0  0  0  0  0  0
  -11.2610    8.9071    0.0000 C   0  0  0  0  0  0  0  0  0  0  0  0
  -12.7610    8.9071    0.0000 C   0  0  0  0  0  0  0  0  0  0  0  0
  -11.1265   10.4011    0.0000 N   0  0  0  0  0  0  0  0  0  0  0  0
  -10.7274   11.8470    0.0000 C   0  0  0  0  0  0  0  0  0  0  0  0
  -12.1318   12.3741    0.0000 O   0  0  0  0  0  0  0  0  0  0  0  0
  -10.0766   13.1984    0.0000 C   0  0  0  0  0  0  0  0  0  0  0  0
  -11.5032   13.6620    0.0000 C   0  0  0  0  0  0  0  0  0  0  0  0
  -11.5032   15.1620    0.0000 C   0  0  0  0  0  0  0  0  0  0  0  0
  -10.0766   15.6255    0.0000 C   0  0  0  0  0  0  0  0  0  0  0  0
   -9.1949   14.4120    0.0000 N   0  0  0  0  0  0  0  0  0  0  0  0
   -8.1107   15.4486    0.0000 C   0  0  0  0  0  0  0  0  0  0  0  0
   -9.0460   16.6213    0.0000 O   0  0  0  0  0  0  0  0  0  0  0  0
   -6.8589   16.2749    0.0000 C   0  0  0  0  0  0  0  0  0  0  0  0
   -7.5697   17.5958    0.0000 C   0  0  0  0  0  0  0  0  0  0  0  0
   -6.7812   18.8718    0.0000 C   0  0  0  0  0  0  0  0  0  0  0  0
   -5.2818   18.8270    0.0000 O   0  0  0  0  0  0  0  0  0  0  0  0
   -7.4920   20.1927    0.0000 O   0  0  0  0  0  0  0  0  0  0  0  0
   -5.4796   16.8645    0.0000 N   0  0  0  0  0  0  0  0  0  0  0  0
   -4.0172   17.1982    0.0000 C   0  0  0  0  0  0  0  0  0  0  0  0
   -4.2186   18.6847    0.0000 O   0  0  0  0  0  0  0  0  0  0  0  0
   -2.5187   17.2655    0.0000 C   0  0  0  0  0  0  0  0  0  0  0  0
   -2.4514   18.7640    0.0000 C   0  0  0  0  0  0  0  0  0  0  0  0
   -1.1200   19.4550    0.0000 C   0  0  0  0  0  0  0  0  0  0  0  0
    0.1440   18.6475    0.0000 C   0  0  0  0  0  0  0  0  0  0  0  0
    1.4754   19.3384    0.0000 C   0  0  0  0  0  0  0  0  0  0  0  0
    1.5427   20.8369    0.0000 C   0  0  0  0  0  0  0  0  0  0  0  0
    2.8741   21.5279    0.0000 O   0  0  0  0  0  0  0  0  0  0  0  0
    0.2786   21.6444    0.0000 C   0  0  0  0  0  0  0  0  0  0  0  0
   -1.0527   20.9535    0.0000 C   0  0  0  0  0  0  0  0  0  0  0  0
   -1.0323   17.0642    0.0000 N   0  0  0  0  0  0  0  0  0  0  0  0
    0.3943   16.6007    0.0000 C   0  0  0  0  0  0  0  0  0  0  0  0
    0.9838   17.9799    0.0000 O   0  0  0  0  0  0  0  0  0  0  0  0
    1.7152   15.8899    0.0000 C   0  0  0  0  0  0  0  0  0  0  0  0
    2.5415   17.1417    0.0000 C   0  0  0  0  0  0  0  0  0  0  0  0
    4.0389   17.0520    0.0000 O   0  0  0  0  0  0  0  0  0  0  0  0
    2.8879   14.9546    0.0000 N   0  0  0  0  0  0  0  0  0  0  0  0
    3.8748   13.8250    0.0000 C   0  0  0  0  0  0  0  0  0  0  0  0
    5.0884   14.7067    0.0000 O   0  0  0  0  0  0  0  0  0  0  0  0
  1  2  1  0
  2  3  1  0
  3  4  1  6
  3  5  1  0
  5  6  1  6
  6  7  1  0
  7  8  2  0
  7  9  1  0
  9 10  1  6
 10 11  1  0
 11 12  2  0
 12 13  1  0
 13 14  2  0
 14 15  1  0
 14 16  1  0
 16 17  2  0
  9 18  1  0
 18 19  1  0
 19 20  2  0
 19 21  1  0
 21 22  1  6
 22 23  1  0
 23 24  1  0
 23 25  1  0
 21 26  1  0
 26 27  1  0
 27 28  2  0
 27 29  1  0
 29 30  1  6
 30 31  1  0
 31 32  1  0
 32 33  1  0
 33 34  1  0
 34 35  2  0
 34 36  1  0
 36 37  1  1
 37 38  1  0
 38 39  2  0
 38 40  1  0
 40 41  1  1
 41 42  1  0
 42 43  1  0
 43 44  1  0
 44 45  1  0
 45 46  2  0
 45 47  1  0
 40 48  1  0
 48 49  1  0
 49 50  2  0
 49 51  1  0
 51 52  1  1
 52 53  1  0
 53 54  1  0
 54 55  1  0
 55 56  1  0
 56 57  2  0
 56 58  1  0
 51 59  1  0
 59 60  1  0
 60 61  2  0
 60 62  1  0
 62 63  1  6
 63 64  1  0
 64 65  1  0
 65 66  1  0
 66 67  1  0
 67 68  2  0
 67 69  1  0
 62 70  1  0
 70 71  1  0
 71 72  2  0
 71 73  1  0
 73 74  1  6
 74 75  1  0
 75 76  1  0
 76 77  1  0
 77 78  1  0
 78 79  2  0
 78 80  1  0
 73 81  1  0
 81 82  1  0
 82 83  1  0
 82 84  2  0
 36 85  1  0
 85 86  1  0
 86 87  1  0
 87 88  1  0
 88 89  1  0
 89 90  1  1
 90 91  2  0
 90 92  1  0
 92 93  1  0
 93 94  1  6
 94 95  1  0
 95 96  1  0
 96 97  1  0
 97 98  1  0
 98 99  2  0
 98100  1  0
 93101  1  0
101102  2  0
101103  1  0
103104  1  0
104105  1  1
105106  1  0
106107  1  0
107108  1  0
108109  1  0
109110  2  0
109111  1  0
104112  1  0
112113  2  0
112114  1  0
114115  1  0
115116  1  1
116117  1  0
117118  1  0
118119  1  0
119120  1  0
120121  2  0
120122  1  0
115123  1  0
123124  2  0
123125  1  0
125126  1  0
126127  1  1
127128  1  0
128129  1  0
129130  1  0
130131  1  0
131132  2  0
131133  1  0
126134  1  0
134135  1  0
134136  2  0
 89137  1  0
137138  1  0
138139  2  0
138140  1  0
140141  1  6
140142  1  0
142143  1  0
143144  2  0
143145  1  0
145146  1  6
146147  1  0
147148  1  0
148149  1  0
149150  1  0
150151  2  0
150152  1  0
152153  1  6
153154  1  0
154155  2  0
154156  1  0
152157  1  0
157158  1  0
158159  2  0
158160  1  0
160161  1  6
161162  1  0
162163  2  0
163164  1  0
164165  2  0
165166  1  0
165167  1  0
167168  2  0
160169  1  0
169170  1  0
170171  2  0
170172  1  0
172173  1  6
173174  1  0
172175  1  0
175176  1  0
176177  2  0
176  5  1  0
 17 11  1  0
 33 29  1  0
149145  1  0
168162  1  0
M  END
>  <molecule_chembl_id>  (289) 
CHEMBL4070657

>  <canonical_smiles>  (289) 
CC[C@H](C)[C@@H]1NC(=O)[C@H](Cc2ccc(O)cc2)NC(=O)[C@H](CC(C)C)NC(=O)[C@@H]2CCCN2C(=O)[C@@H](NC(=O)[C@H](CCCNC(=N)N)NC(=O)[C@H](CCCNC(=N)N)NC(=O)[C@H](CCCNC(=N)N)NC(=O)[C@H](CCCNC(=N)N)NC(C)=O)CSSC[C@@H](C(=O)N[C@@H](CCCNC(=N)N)C(=O)N[C@@H](CCCNC(=N)N)C(=O)N[C@@H](CCCNC(=N)N)C(=O)N[C@@H](CCCNC(=N)N)C(N)=O)NC(=O)[C@H](C)NC(=O)[C@@H]2CCCN2C(=O)[C@H](CC(=O)O)NC(=O)[C@H](Cc2ccc(O)cc2)NC(=O)[C@H](CO)NC1=O

>  <pchembl_value_mean>  (289) 
7.4775

>  <inchi>  (289) 
InChI=1S/C106H178N44O25S2/c1-7-54(4)79-96(173)145-73(50-151)92(169)142-70(47-57-28-32-59(153)33-29-57)90(167)144-72(49-78(155)156)97(174)149-44-16-26-76(149)94(171)132-55(5)81(158)146-74(93(170)140-67(24-14-42-130-105(120)121)87(164)138-65(22-12-40-128-103(116)117)85(162)136-63(20-10-38-126-101(112)113)83(160)134-61(80(107)157)18-8-36-124-99(108)109)51-176-177-52-75(98(175)150-45-17-27-77(150)95(172)143-69(46-53(2)3)89(166)141-71(91(168)148-79)48-58-30-34-60(154)35-31-58)147-88(165)68(25-15-43-131-106(122)123)139-86(163)66(23-13-41-129-104(118)119)137-84(161)64(21-11-39-127-102(114)115)135-82(159)62(133-56(6)152)19-9-37-125-100(110)111/h28-35,53-55,61-77,79,151,153-154H,7-27,36-52H2,1-6H3,(H2,107,157)(H,132,171)(H,133,152)(H,134,160)(H,135,159)(H,136,162)(H,137,161)(H,138,164)(H,139,163)(H,140,170)(H,141,166)(H,142,169)(H,143,172)(H,144,167)(H,145,173)(H,146,158)(H,147,165)(H,148,168)(H,155,156)(H4,108,109,124)(H4,110,111,125)(H4,112,113,126)(H4,114,115,127)(H4,116,117,128)(H4,118,119,129)(H4,120,121,130)(H4,122,123,131)/t54-,55-,61-,62-,63-,64-,65-,66-,67-,68-,69-,70-,71-,72-,73-,74-,75-,76-,77-,79-/m0/s1

$$$$

     RDKit          2D

150156  0  0  0  0  0  0  0  0999 V2000
    7.4592   15.3348    0.0000 C   0  0  0  0  0  0  0  0  0  0  0  0
    6.1077   14.6840    0.0000 C   0  0  0  0  0  0  0  0  0  0  0  0
    5.9956   13.1882    0.0000 C   0  0  0  0  0  0  0  0  0  0  0  0
    7.2350   12.3432    0.0000 C   0  0  0  0  0  0  0  0  0  0  0  0
    4.6442   12.5373    0.0000 C   0  0  0  0  0  0  0  0  0  0  0  0
    5.1713   11.1330    0.0000 N   0  0  0  0  0  0  0  0  0  0  0  0
    5.4391    9.6571    0.0000 C   0  0  0  0  0  0  0  0  0  0  0  0
    6.9331    9.7915    0.0000 O   0  0  0  0  0  0  0  0  0  0  0  0
    5.4391    8.1571    0.0000 C   0  0  0  0  0  0  0  0  0  0  0  0
    6.9331    8.0226    0.0000 C   0  0  0  0  0  0  0  0  0  0  0  0
    7.5636    6.6616    0.0000 C   0  0  0  0  0  0  0  0  0  0  0  0
    6.7002    5.4350    0.0000 C   0  0  0  0  0  0  0  0  0  0  0  0
    7.3307    4.0740    0.0000 C   0  0  0  0  0  0  0  0  0  0  0  0
    8.8247    3.9395    0.0000 C   0  0  0  0  0  0  0  0  0  0  0  0
    9.4552    2.5785    0.0000 C   0  0  0  0  0  0  0  0  0  0  0  0
    8.5918    1.3519    0.0000 C   0  0  0  0  0  0  0  0  0  0  0  0
    9.2223   -0.0091    0.0000 C   0  0  0  0  0  0  0  0  0  0  0  0
   10.7163   -0.1436    0.0000 C   0  0  0  0  0  0  0  0  0  0  0  0
   11.5797    1.0830    0.0000 C   0  0  0  0  0  0  0  0  0  0  0  0
   10.9492    2.4440    0.0000 C   0  0  0  0  0  0  0  0  0  0  0  0
    9.6881    5.1661    0.0000 C   0  0  0  0  0  0  0  0  0  0  0  0
    9.0576    6.5271    0.0000 C   0  0  0  0  0  0  0  0  0  0  0  0
    5.1713    6.6812    0.0000 N   0  0  0  0  0  0  0  0  0  0  0  0
    4.6442    5.2768    0.0000 C   0  0  0  0  0  0  0  0  0  0  0  0
    5.9956    4.6260    0.0000 O   0  0  0  0  0  0  0  0  0  0  0  0
    3.8748    3.9892    0.0000 C   0  0  0  0  0  0  0  0  0  0  0  0
    5.0884    3.1075    0.0000 C   0  0  0  0  0  0  0  0  0  0  0  0
    4.9316    1.6157    0.0000 C   0  0  0  0  0  0  0  0  0  0  0  0
    6.1451    0.7340    0.0000 C   0  0  0  0  0  0  0  0  0  0  0  0
    3.5613    1.0056    0.0000 C   0  0  0  0  0  0  0  0  0  0  0  0
    2.8879    2.8596    0.0000 N   0  0  0  0  0  0  0  0  0  0  0  0
    1.7152    1.9243    0.0000 C   0  0  0  0  0  0  0  0  0  0  0  0
    2.5415    0.6725    0.0000 O   0  0  0  0  0  0  0  0  0  0  0  0
    0.3943    1.2135    0.0000 C   0  0  0  0  0  0  0  0  0  0  0  0
    1.2760    0.0000    0.0000 C   0  0  0  0  0  0  0  0  0  0  0  0
    0.3943   -1.2135    0.0000 C   0  0  0  0  0  0  0  0  0  0  0  0
   -1.0323   -0.7500    0.0000 C   0  0  0  0  0  0  0  0  0  0  0  0
   -1.0323    0.7500    0.0000 N   0  0  0  0  0  0  0  0  0  0  0  0
   -2.5187    0.5487    0.0000 C   0  0  0  0  0  0  0  0  0  0  0  0
   -2.4514   -0.9498    0.0000 O   0  0  0  0  0  0  0  0  0  0  0  0
   -4.0172    0.6159    0.0000 C   0  0  0  0  0  0  0  0  0  0  0  0
   -4.2186   -0.8705    0.0000 N   0  0  0  0  0  0  0  0  0  0  0  0
   -5.6065   -1.4393    0.0000 C   0  0  0  0  0  0  0  0  0  0  0  0
   -6.7931   -0.5217    0.0000 O   0  0  0  0  0  0  0  0  0  0  0  0
   -5.8079   -2.9257    0.0000 C   0  0  0  0  0  0  0  0  0  0  0  0
   -7.1958   -3.4946    0.0000 C   0  0  0  0  0  0  0  0  0  0  0  0
   -7.3972   -4.9810    0.0000 C   0  0  0  0  0  0  0  0  0  0  0  0
   -8.7851   -5.5498    0.0000 C   0  0  0  0  0  0  0  0  0  0  0  0
   -8.9865   -7.0363    0.0000 N   0  0  0  0  0  0  0  0  0  0  0  0
  -10.3744   -7.6051    0.0000 C   0  0  0  0  0  0  0  0  0  0  0  0
  -11.5610   -6.6875    0.0000 N   0  0  0  0  0  0  0  0  0  0  0  0
  -10.5758   -9.0915    0.0000 N   0  0  0  0  0  0  0  0  0  0  0  0
   -4.6213   -3.8433    0.0000 N   0  0  0  0  0  0  0  0  0  0  0  0
   -4.8226   -5.3298    0.0000 C   0  0  0  0  0  0  0  0  0  0  0  0
   -6.2106   -5.8986    0.0000 O   0  0  0  0  0  0  0  0  0  0  0  0
   -3.6360   -6.2473    0.0000 C   0  0  0  0  0  0  0  0  0  0  0  0
   -3.8373   -7.7338    0.0000 C   0  0  0  0  0  0  0  0  0  0  0  0
   -2.6507   -8.6513    0.0000 C   0  0  0  0  0  0  0  0  0  0  0  0
   -2.8521  -10.1378    0.0000 C   0  0  0  0  0  0  0  0  0  0  0  0
   -1.6655  -11.0554    0.0000 N   0  0  0  0  0  0  0  0  0  0  0  0
   -1.8668  -12.5418    0.0000 C   0  0  0  0  0  0  0  0  0  0  0  0
   -3.2548  -13.1106    0.0000 N   0  0  0  0  0  0  0  0  0  0  0  0
   -0.6802  -13.4594    0.0000 N   0  0  0  0  0  0  0  0  0  0  0  0
   -2.2480   -5.6785    0.0000 N   0  0  0  0  0  0  0  0  0  0  0  0
   -1.0614   -6.5961    0.0000 C   0  0  0  0  0  0  0  0  0  0  0  0
    0.3265   -6.0272    0.0000 C   0  0  0  0  0  0  0  0  0  0  0  0
   -1.2628   -8.0825    0.0000 O   0  0  0  0  0  0  0  0  0  0  0  0
   -5.4796    0.9497    0.0000 C   0  0  0  0  0  0  0  0  0  0  0  0
   -6.8589    1.5393    0.0000 S   0  0  0  0  0  0  0  0  0  0  0  0
   -8.1107    2.3656    0.0000 S   0  0  0  0  0  0  0  0  0  0  0  0
   -9.1949    3.4022    0.0000 C   0  0  0  0  0  0  0  0  0  0  0  0
  -10.0766    4.6157    0.0000 C   0  0  0  0  0  0  0  0  0  0  0  0
  -11.3643    3.8464    0.0000 C   0  0  0  0  0  0  0  0  0  0  0  0
  -11.3418    2.3466    0.0000 O   0  0  0  0  0  0  0  0  0  0  0  0
  -12.6744    4.5769    0.0000 N   0  0  0  0  0  0  0  0  0  0  0  0
  -13.9621    3.8075    0.0000 C   0  0  0  0  0  0  0  0  0  0  0  0
  -15.2722    4.5380    0.0000 C   0  0  0  0  0  0  0  0  0  0  0  0
  -16.5599    3.7687    0.0000 C   0  0  0  0  0  0  0  0  0  0  0  0
  -17.8700    4.4991    0.0000 C   0  0  0  0  0  0  0  0  0  0  0  0
  -19.1576    3.7298    0.0000 N   0  0  0  0  0  0  0  0  0  0  0  0
  -20.4678    4.4603    0.0000 C   0  0  0  0  0  0  0  0  0  0  0  0
  -20.4902    5.9601    0.0000 N   0  0  0  0  0  0  0  0  0  0  0  0
  -21.7554    3.6909    0.0000 N   0  0  0  0  0  0  0  0  0  0  0  0
  -13.9396    2.3077    0.0000 C   0  0  0  0  0  0  0  0  0  0  0  0
  -12.6295    1.5772    0.0000 O   0  0  0  0  0  0  0  0  0  0  0  0
  -15.2273    1.5383    0.0000 N   0  0  0  0  0  0  0  0  0  0  0  0
  -15.2049    0.0385    0.0000 C   0  0  0  0  0  0  0  0  0  0  0  0
  -16.4925   -0.7308    0.0000 C   0  0  0  0  0  0  0  0  0  0  0  0
  -16.4701   -2.2307    0.0000 C   0  0  0  0  0  0  0  0  0  0  0  0
  -17.7578   -3.0000    0.0000 C   0  0  0  0  0  0  0  0  0  0  0  0
  -17.7353   -4.4999    0.0000 N   0  0  0  0  0  0  0  0  0  0  0  0
  -19.0230   -5.2692    0.0000 C   0  0  0  0  0  0  0  0  0  0  0  0
  -20.3331   -4.5387    0.0000 N   0  0  0  0  0  0  0  0  0  0  0  0
  -19.0006   -6.7690    0.0000 N   0  0  0  0  0  0  0  0  0  0  0  0
  -13.8948   -0.6920    0.0000 C   0  0  0  0  0  0  0  0  0  0  0  0
  -13.8723   -2.1918    0.0000 N   0  0  0  0  0  0  0  0  0  0  0  0
  -12.6071    0.0774    0.0000 O   0  0  0  0  0  0  0  0  0  0  0  0
  -10.7274    5.9672    0.0000 N   0  0  0  0  0  0  0  0  0  0  0  0
  -11.1265    7.4131    0.0000 C   0  0  0  0  0  0  0  0  0  0  0  0
  -12.6024    7.1453    0.0000 O   0  0  0  0  0  0  0  0  0  0  0  0
  -11.2610    8.9071    0.0000 C   0  0  0  0  0  0  0  0  0  0  0  0
  -12.7610    8.9071    0.0000 C   0  0  0  0  0  0  0  0  0  0  0  0
  -13.5110   10.2061    0.0000 C   0  0  0  0  0  0  0  0  0  0  0  0
  -12.7610   11.5052    0.0000 C   0  0  0  0  0  0  0  0  0  0  0  0
  -13.5110   12.8042    0.0000 C   0  0  0  0  0  0  0  0  0  0  0  0
  -15.0110   12.8042    0.0000 C   0  0  0  0  0  0  0  0  0  0  0  0
  -15.7610   14.1032    0.0000 Cl  0  0  0  0  0  0  0  0  0  0  0  0
  -15.7610   11.5052    0.0000 C   0  0  0  0  0  0  0  0  0  0  0  0
  -15.0110   10.2061    0.0000 C   0  0  0  0  0  0  0  0  0  0  0  0
  -11.1265   10.4011    0.0000 N   0  0  0  0  0  0  0  0  0  0  0  0
  -10.7274   11.8470    0.0000 C   0  0  0  0  0  0  0  0  0  0  0  0
  -12.1318   12.3741    0.0000 O   0  0  0  0  0  0  0  0  0  0  0  0
  -10.0766   13.1984    0.0000 C   0  0  0  0  0  0  0  0  0  0  0  0
  -11.5032   13.6620    0.0000 C   0  0  0  0  0  0  0  0  0  0  0  0
  -11.5032   15.1620    0.0000 C   0  0  0  0  0  0  0  0  0  0  0  0
  -12.7167   16.0437    0.0000 O   0  0  0  0  0  0  0  0  0  0  0  0
  -12.5599   17.5354    0.0000 C   0  0  0  0  0  0  0  0  0  0  0  0
  -13.7735   18.4171    0.0000 C   0  0  0  0  0  0  0  0  0  0  0  0
  -15.1438   17.8070    0.0000 O   0  0  0  0  0  0  0  0  0  0  0  0
  -13.6167   19.9089    0.0000 O   0  0  0  0  0  0  0  0  0  0  0  0
  -10.0766   15.6255    0.0000 C   0  0  0  0  0  0  0  0  0  0  0  0
   -9.1949   14.4120    0.0000 N   0  0  0  0  0  0  0  0  0  0  0  0
   -8.1107   15.4486    0.0000 C   0  0  0  0  0  0  0  0  0  0  0  0
   -9.0460   16.6213    0.0000 O   0  0  0  0  0  0  0  0  0  0  0  0
   -6.8589   16.2749    0.0000 C   0  0  0  0  0  0  0  0  0  0  0  0
   -7.5697   17.5958    0.0000 C   0  0  0  0  0  0  0  0  0  0  0  0
   -6.7812   18.8718    0.0000 C   0  0  0  0  0  0  0  0  0  0  0  0
   -5.2818   18.8270    0.0000 O   0  0  0  0  0  0  0  0  0  0  0  0
   -7.4920   20.1927    0.0000 O   0  0  0  0  0  0  0  0  0  0  0  0
   -5.4796   16.8645    0.0000 N   0  0  0  0  0  0  0  0  0  0  0  0
   -4.0172   17.1982    0.0000 C   0  0  0  0  0  0  0  0  0  0  0  0
   -4.2186   18.6847    0.0000 O   0  0  0  0  0  0  0  0  0  0  0  0
   -2.5187   17.2655    0.0000 C   0  0  0  0  0  0  0  0  0  0  0  0
   -2.4514   18.7640    0.0000 C   0  0  0  0  0  0  0  0  0  0  0  0
   -1.1200   19.4550    0.0000 C   0  0  0  0  0  0  0  0  0  0  0  0
    0.1440   18.6475    0.0000 C   0  0  0  0  0  0  0  0  0  0  0  0
    1.4754   19.3384    0.0000 C   0  0  0  0  0  0  0  0  0  0  0  0
    1.5427   20.8369    0.0000 C   0  0  0  0  0  0  0  0  0  0  0  0
    2.8741   21.5279    0.0000 O   0  0  0  0  0  0  0  0  0  0  0  0
    0.2786   21.6444    0.0000 C   0  0  0  0  0  0  0  0  0  0  0  0
   -1.0527   20.9535    0.0000 C   0  0  0  0  0  0  0  0  0  0  0  0
   -1.0323   17.0642    0.0000 N   0  0  0  0  0  0  0  0  0  0  0  0
    0.3943   16.6007    0.0000 C   0  0  0  0  0  0  0  0  0  0  0  0
    0.9838   17.9799    0.0000 O   0  0  0  0  0  0  0  0  0  0  0  0
    1.7152   15.8899    0.0000 C   0  0  0  0  0  0  0  0  0  0  0  0
    2.5415   17.1417    0.0000 C   0  0  0  0  0  0  0  0  0  0  0  0
    4.0389   17.0520    0.0000 O   0  0  0  0  0  0  0  0  0  0  0  0
    2.8879   14.9546    0.0000 N   0  0  0  0  0  0  0  0  0  0  0  0
    3.8748   13.8250    0.0000 C   0  0  0  0  0  0  0  0  0  0  0  0
    5.0884   14.7067    0.0000 O   0  0  0  0  0  0  0  0  0  0  0  0
  1  2  1  0
  2  3  1  0
  3  4  1  6
  3  5  1  0
  5  6  1  6
  6  7  1  0
  7  8  2  0
  7  9  1  0
  9 10  1  6
 10 11  1  0
 11 12  2  0
 12 13  1  0
 13 14  2  0
 14 15  1  0
 15 16  2  0
 16 17  1  0
 17 18  2  0
 18 19  1  0
 19 20  2  0
 14 21  1  0
 21 22  2  0
  9 23  1  0
 23 24  1  0
 24 25  2  0
 24 26  1  0
 26 27  1  6
 27 28  1  0
 28 29  1  0
 28 30  1  0
 26 31  1  0
 31 32  1  0
 32 33  2  0
 32 34  1  0
 34 35  1  6
 35 36  1  0
 36 37  1  0
 37 38  1  0
 38 39  1  0
 39 40  2  0
 39 41  1  0
 41 42  1  1
 42 43  1  0
 43 44  2  0
 43 45  1  0
 45 46  1  1
 46 47  1  0
 47 48  1  0
 48 49  1  0
 49 50  1  0
 50 51  2  0
 50 52  1  0
 45 53  1  0
 53 54  1  0
 54 55  2  0
 54 56  1  0
 56 57  1  1
 57 58  1  0
 58 59  1  0
 59 60  1  0
 60 61  1  0
 61 62  2  0
 61 63  1  0
 56 64  1  0
 64 65  1  0
 65 66  1  0
 65 67  2  0
 41 68  1  0
 68 69  1  0
 69 70  1  0
 70 71  1  0
 71 72  1  0
 72 73  1  1
 73 74  2  0
 73 75  1  0
 75 76  1  0
 76 77  1  6
 77 78  1  0
 78 79  1  0
 79 80  1  0
 80 81  1  0
 81 82  2  0
 81 83  1  0
 76 84  1  0
 84 85  2  0
 84 86  1  0
 86 87  1  0
 87 88  1  6
 88 89  1  0
 89 90  1  0
 90 91  1  0
 91 92  1  0
 92 93  2  0
 92 94  1  0
 87 95  1  0
 95 96  1  0
 95 97  2  0
 72 98  1  0
 98 99  1  0
 99100  2  0
 99101  1  0
101102  1  6
102103  1  0
103104  2  0
104105  1  0
105106  2  0
106107  1  0
106108  1  0
108109  2  0
101110  1  0
110111  1  0
111112  2  0
111113  1  0
113114  1  6
114115  1  0
115116  1  6
116117  1  0
117118  1  0
118119  2  0
118120  1  0
115121  1  0
121122  1  0
122123  1  0
123124  2  0
123125  1  0
125126  1  6
126127  1  0
127128  2  0
127129  1  0
125130  1  0
130131  1  0
131132  2  0
131133  1  0
133134  1  6
134135  1  0
135136  2  0
136137  1  0
137138  2  0
138139  1  0
138140  1  0
140141  2  0
133142  1  0
142143  1  0
143144  2  0
143145  1  0
145146  1  6
146147  1  0
145148  1  0
148149  1  0
149150  2  0
149  5  1  0
 22 11  1  0
 38 34  1  0
109103  1  0
122113  1  0
141135  1  0
 20 15  1  0
M  END
>  <molecule_chembl_id>  (290) 
CHEMBL5185461

>  <canonical_smiles>  (290) 
CC[C@H](C)[C@@H]1NC(=O)[C@H](Cc2ccc(-c3ccccc3)cc2)NC(=O)[C@H](CC(C)C)NC(=O)[C@@H]2CCCN2C(=O)[C@@H](NC(=O)[C@H](CCCNC(=N)N)NC(=O)[C@H](CCCNC(=N)N)NC(C)=O)CSSC[C@@H](C(=O)N[C@@H](CCCNC(=N)N)C(=O)N[C@@H](CCCNC(=N)N)C(N)=O)NC(=O)[C@H](Cc2ccc(Cl)cc2)NC(=O)[C@@H]2C[C@H](OCC(=O)O)CN2C(=O)[C@H](CC(=O)O)NC(=O)[C@H](Cc2ccc(O)cc2)NC(=O)[C@H](CO)NC1=O

>  <pchembl_value_mean>  (290) 
7.48

>  <inchi>  (290) 
InChI=1S/C96H139ClN28O23S2/c1-6-51(4)77-90(145)120-70(46-126)86(141)116-66(42-55-26-32-59(128)33-27-55)83(138)119-69(44-75(129)130)91(146)125-45-60(148-47-76(131)132)43-74(125)89(144)118-67(41-54-24-30-58(97)31-25-54)84(139)121-71(87(142)114-63(19-12-36-109-95(103)104)80(135)112-61(78(98)133)17-10-34-107-93(99)100)48-149-150-49-72(122-81(136)64(20-13-37-110-96(105)106)113-79(134)62(111-52(5)127)18-11-35-108-94(101)102)92(147)124-38-14-21-73(124)88(143)117-65(39-50(2)3)82(137)115-68(85(140)123-77)40-53-22-28-57(29-23-53)56-15-8-7-9-16-56/h7-9,15-16,22-33,50-51,60-74,77,126,128H,6,10-14,17-21,34-49H2,1-5H3,(H2,98,133)(H,111,127)(H,112,135)(H,113,134)(H,114,142)(H,115,137)(H,116,141)(H,117,143)(H,118,144)(H,119,138)(H,120,145)(H,121,139)(H,122,136)(H,123,140)(H,129,130)(H,131,132)(H4,99,100,107)(H4,101,102,108)(H4,103,104,109)(H4,105,106,110)/t51-,60-,61-,62-,63-,64-,65-,66-,67-,68-,69-,70-,71-,72-,73-,74-,77-/m0/s1

$$$$

     RDKit          2D

 31 35  0  0  0  0  0  0  0  0999 V2000
    5.2500   -1.2990    0.0000 C   0  0  0  0  0  0  0  0  0  0  0  0
    3.7500   -1.2990    0.0000 C   0  0  0  0  0  0  0  0  0  0  0  0
    3.0000    0.0000    0.0000 C   0  0  0  0  0  0  0  0  0  0  0  0
    3.7500    1.2990    0.0000 O   0  0  0  0  0  0  0  0  0  0  0  0
    1.5000    0.0000    0.0000 N   0  0  0  0  0  0  0  0  0  0  0  0
    0.7500   -1.2990    0.0000 C   0  0  0  0  0  0  0  0  0  0  0  0
   -0.7500   -1.2990    0.0000 C   0  0  0  0  0  0  0  0  0  0  0  0
   -1.5000    0.0000    0.0000 N   0  0  0  0  0  0  0  0  0  0  0  0
   -2.9832   -0.2236    0.0000 C   0  0  0  0  0  0  0  0  0  0  0  0
   -3.3170   -1.6860    0.0000 N   0  0  0  0  0  0  0  0  0  0  0  0
   -4.7504   -2.1281    0.0000 C   0  0  0  0  0  0  0  0  0  0  0  0
   -5.8500   -1.1078    0.0000 N   0  0  0  0  0  0  0  0  0  0  0  0
   -5.5162    0.3546    0.0000 C   0  0  0  0  0  0  0  0  0  0  0  0
   -6.7634    1.1965    0.0000 C   0  0  0  0  0  0  0  0  0  0  0  0
   -6.5398    2.6797    0.0000 C   0  0  0  0  0  0  0  0  0  0  0  0
   -7.7125    3.6150    0.0000 C   0  0  0  0  0  0  0  0  0  0  0  0
   -7.4890    5.0982    0.0000 C   0  0  0  0  0  0  0  0  0  0  0  0
   -6.0927    5.6462    0.0000 O   0  0  0  0  0  0  0  0  0  0  0  0
   -8.6617    6.0334    0.0000 C   0  0  0  0  0  0  0  0  0  0  0  0
  -10.0580    5.4854    0.0000 C   0  0  0  0  0  0  0  0  0  0  0  0
  -10.2816    4.0022    0.0000 C   0  0  0  0  0  0  0  0  0  0  0  0
   -9.1088    3.0669    0.0000 C   0  0  0  0  0  0  0  0  0  0  0  0
   -9.3324    1.5837    0.0000 Cl  0  0  0  0  0  0  0  0  0  0  0  0
   -5.1435    3.2277    0.0000 C   0  0  0  0  0  0  0  0  0  0  0  0
   -4.9199    4.7110    0.0000 Cl  0  0  0  0  0  0  0  0  0  0  0  0
   -3.9707    2.2925    0.0000 C   0  0  0  0  0  0  0  0  0  0  0  0
   -4.0828    0.7967    0.0000 C   0  0  0  0  0  0  0  0  0  0  0  0
   -2.7314    3.1375    0.0000 O   0  0  0  0  0  0  0  0  0  0  0  0
   -1.2980    2.6953    0.0000 C   0  0  0  0  0  0  0  0  0  0  0  0
   -0.7500    1.2990    0.0000 C   0  0  0  0  0  0  0  0  0  0  0  0
    0.7500    1.2990    0.0000 C   0  0  0  0  0  0  0  0  0  0  0  0
  1  2  2  0
  2  3  1  0
  3  4  2  0
  3  5  1  0
  5  6  1  0
  6  7  1  0
  7  8  1  0
  8  9  1  0
  9 10  1  0
 10 11  2  0
 11 12  1  0
 12 13  2  0
 13 14  1  0
 14 15  2  0
 15 16  1  0
 16 17  2  0
 17 18  1  0
 17 19  1  0
 19 20  2  0
 20 21  1  0
 21 22  2  0
 22 23  1  0
 15 24  1  0
 24 25  1  0
 24 26  2  0
 26 27  1  0
 26 28  1  0
 28 29  1  0
 30 29  1  6
 30 31  1  0
 31  5  1  0
 30  8  1  0
 27  9  2  0
 27 13  1  0
 22 16  1  0
M  END
>  <molecule_chembl_id>  (291) 
CHEMBL4450793

>  <canonical_smiles>  (291) 
C=CC(=O)N1CCN2c3ncnc4cc(-c5c(O)cccc5Cl)c(Cl)c(c34)OC[C@@H]2C1

>  <pchembl_value_mean>  (291) 
7.5

>  <inchi>  (291) 
InChI=1S/C22H18Cl2N4O3/c1-2-17(30)27-6-7-28-12(9-27)10-31-21-19-15(25-11-26-22(19)28)8-13(20(21)24)18-14(23)4-3-5-16(18)29/h2-5,8,11-12,29H,1,6-7,9-10H2/t12-/m0/s1

$$$$

     RDKit          2D

 42 48  0  0  0  0  0  0  0  0999 V2000
   -0.2796  -14.2769    0.0000 C   0  0  0  0  0  0  0  0  0  0  0  0
   -0.1228  -12.7852    0.0000 C   0  0  0  0  0  0  0  0  0  0  0  0
    1.2476  -12.1751    0.0000 C   0  0  0  0  0  0  0  0  0  0  0  0
    2.4611  -13.0567    0.0000 O   0  0  0  0  0  0  0  0  0  0  0  0
    1.4043  -10.6833    0.0000 N   0  0  0  0  0  0  0  0  0  0  0  0
    0.4604   -9.5176    0.0000 C   0  0  0  0  0  0  0  0  0  0  0  0
    1.6261   -8.5736    0.0000 C   0  0  0  0  0  0  0  0  0  0  0  0
    2.7918   -7.6296    0.0000 C   0  0  0  0  0  0  0  0  0  0  0  0
    1.8478   -6.4639    0.0000 C   0  0  0  0  0  0  0  0  0  0  0  0
    2.0046   -4.9721    0.0000 N   0  0  0  0  0  0  0  0  0  0  0  0
    0.8899   -3.9684    0.0000 N   0  0  0  0  0  0  0  0  0  0  0  0
    1.5000   -2.5981    0.0000 C   0  0  0  0  0  0  0  0  0  0  0  0
    0.7500   -1.2990    0.0000 C   0  0  0  0  0  0  0  0  0  0  0  0
    1.5000    0.0000    0.0000 C   0  0  0  0  0  0  0  0  0  0  0  0
    0.7500    1.2990    0.0000 C   0  0  0  0  0  0  0  0  0  0  0  0
   -0.7500    1.2990    0.0000 C   0  0  0  0  0  0  0  0  0  0  0  0
   -1.5000    0.0000    0.0000 C   0  0  0  0  0  0  0  0  0  0  0  0
   -2.9672    0.3119    0.0000 C   0  0  0  0  0  0  0  0  0  0  0  0
   -3.1240    1.8037    0.0000 N   0  0  0  0  0  0  0  0  0  0  0  0
   -1.7537    2.4138    0.0000 N   0  0  0  0  0  0  0  0  0  0  0  0
   -1.4418    3.8810    0.0000 C   0  0  0  0  0  0  0  0  0  0  0  0
   -2.5565    4.8847    0.0000 C   0  0  0  0  0  0  0  0  0  0  0  0
   -2.2447    6.3519    0.0000 N   0  0  0  0  0  0  0  0  0  0  0  0
   -3.3594    7.3556    0.0000 C   0  0  0  0  0  0  0  0  0  0  0  0
   -0.8181    6.8154    0.0000 C   0  0  0  0  0  0  0  0  0  0  0  0
   -0.7500   -1.2990    0.0000 C   0  0  0  0  0  0  0  0  0  0  0  0
    2.9918   -2.7549    0.0000 C   0  0  0  0  0  0  0  0  0  0  0  0
    3.9955   -1.6402    0.0000 C   0  0  0  0  0  0  0  0  0  0  0  0
    5.4627   -1.9520    0.0000 C   0  0  0  0  0  0  0  0  0  0  0  0
    5.9262   -3.3786    0.0000 Cl  0  0  0  0  0  0  0  0  0  0  0  0
    6.4664   -0.8373    0.0000 C   0  0  0  0  0  0  0  0  0  0  0  0
    7.9336   -1.1492    0.0000 C   0  0  0  0  0  0  0  0  0  0  0  0
    6.0029    0.5893    0.0000 C   0  0  0  0  0  0  0  0  0  0  0  0
    4.5356    0.9012    0.0000 C   0  0  0  0  0  0  0  0  0  0  0  0
    3.7856    2.2002    0.0000 N   0  0  0  0  0  0  0  0  0  0  0  0
    2.3184    1.8883    0.0000 N   0  0  0  0  0  0  0  0  0  0  0  0
    2.1616    0.3965    0.0000 C   0  0  0  0  0  0  0  0  0  0  0  0
    3.5320   -0.2136    0.0000 C   0  0  0  0  0  0  0  0  0  0  0  0
    3.3037   -4.2221    0.0000 C   0  0  0  0  0  0  0  0  0  0  0  0
    4.6740   -4.8322    0.0000 C   0  0  0  0  0  0  0  0  0  0  0  0
    0.6821   -7.4079    0.0000 C   0  0  0  0  0  0  0  0  0  0  0  0
    2.5701   -9.7393    0.0000 C   0  0  0  0  0  0  0  0  0  0  0  0
  1  2  2  0
  2  3  1  0
  3  4  2  0
  3  5  1  0
  5  6  1  0
  6  7  1  0
  7  8  1  0
  8  9  1  0
  9 10  1  0
 10 11  1  0
 11 12  2  0
 12 13  1  0
 13 14  2  0
 14 15  1  0
 15 16  2  0
 16 17  1  0
 17 18  1  0
 18 19  2  0
 19 20  1  0
 20 21  1  0
 21 22  1  0
 22 23  1  0
 23 24  1  0
 23 25  1  0
 17 26  2  0
 12 27  1  0
 27 28  1  0
 28 29  2  0
 29 30  1  0
 29 31  1  0
 31 32  1  0
 31 33  2  0
 33 34  1  0
 34 35  1  0
 35 36  1  0
 36 37  2  0
 37 38  1  0
 27 39  2  0
 39 40  1  0
  9 41  1  0
  7 42  1  0
 42  5  1  0
 41  7  1  0
 39 10  1  0
 26 13  1  0
 38 28  1  0
 20 16  1  0
 38 34  2  0
M  END
>  <molecule_chembl_id>  (292) 
CHEMBL5291301

>  <canonical_smiles>  (292) 
C=CC(=O)N1CC2(CC(n3nc(-c4ccc5c(cnn5CCN(C)C)c4)c(-c4c(Cl)c(C)cc5[nH]ncc45)c3C)C2)C1

>  <pchembl_value_mean>  (292) 
7.52

>  <inchi>  (292) 
InChI=1S/C32H35ClN8O/c1-6-27(42)39-17-32(18-39)13-23(14-32)41-20(3)28(29-24-16-34-36-25(24)11-19(2)30(29)33)31(37-41)21-7-8-26-22(12-21)15-35-40(26)10-9-38(4)5/h6-8,11-12,15-16,23H,1,9-10,13-14,17-18H2,2-5H3,(H,34,36)

$$$$

     RDKit          2D

 40 44  0  0  0  0  0  0  0  0999 V2000
   -9.7500   -1.2990    0.0000 C   0  0  0  0  0  0  0  0  0  0  0  0
   -8.2500   -1.2990    0.0000 C   0  0  0  0  0  0  0  0  0  0  0  0
   -7.5000   -2.5981    0.0000 C   0  0  0  0  0  0  0  0  0  0  0  0
   -8.2500   -3.8971    0.0000 O   0  0  0  0  0  0  0  0  0  0  0  0
   -6.0000   -2.5981    0.0000 N   0  0  0  0  0  0  0  0  0  0  0  0
   -5.2500   -1.2990    0.0000 C   0  0  0  0  0  0  0  0  0  0  0  0
   -3.7500   -1.2990    0.0000 C   0  0  0  0  0  0  0  0  0  0  0  0
   -3.0000   -2.5981    0.0000 N   0  0  0  0  0  0  0  0  0  0  0  0
   -1.5000   -2.5981    0.0000 C   0  0  0  0  0  0  0  0  0  0  0  0
   -0.7500   -3.8971    0.0000 N   0  0  0  0  0  0  0  0  0  0  0  0
    0.7500   -3.8971    0.0000 C   0  0  0  0  0  0  0  0  0  0  0  0
    1.1772   -4.9037    0.0000 O   0  0  0  0  0  0  0  0  0  0  0  0
    1.5000   -2.5981    0.0000 N   0  0  0  0  0  0  0  0  0  0  0  0
    3.0000   -2.5981    0.0000 C   0  0  0  0  0  0  0  0  0  0  0  0
    3.7500   -1.2990    0.0000 C   0  0  0  0  0  0  0  0  0  0  0  0
    5.2500   -1.2990    0.0000 C   0  0  0  0  0  0  0  0  0  0  0  0
    6.0000   -2.5981    0.0000 C   0  0  0  0  0  0  0  0  0  0  0  0
    5.2500   -3.8971    0.0000 C   0  0  0  0  0  0  0  0  0  0  0  0
    3.7500   -3.8971    0.0000 C   0  0  0  0  0  0  0  0  0  0  0  0
    3.0000   -5.1962    0.0000 C   0  0  0  0  0  0  0  0  0  0  0  0
    3.7500   -6.4952    0.0000 C   0  0  0  0  0  0  0  0  0  0  0  0
    1.9147   -5.3294    0.0000 C   0  0  0  0  0  0  0  0  0  0  0  0
    0.7500   -1.2990    0.0000 C   0  0  0  0  0  0  0  0  0  0  0  0
    1.5000    0.0000    0.0000 C   0  0  0  0  0  0  0  0  0  0  0  0
    0.7500    1.2990    0.0000 C   0  0  0  0  0  0  0  0  0  0  0  0
    1.5000    2.5981    0.0000 C   0  0  0  0  0  0  0  0  0  0  0  0
    3.0000    2.5981    0.0000 C   0  0  0  0  0  0  0  0  0  0  0  0
    3.7500    1.2990    0.0000 O   0  0  0  0  0  0  0  0  0  0  0  0
    3.7500    3.8971    0.0000 C   0  0  0  0  0  0  0  0  0  0  0  0
    3.0000    5.1962    0.0000 C   0  0  0  0  0  0  0  0  0  0  0  0
    1.5000    5.1962    0.0000 C   0  0  0  0  0  0  0  0  0  0  0  0
    0.7500    3.8971    0.0000 C   0  0  0  0  0  0  0  0  0  0  0  0
   -0.7500    3.8971    0.0000 F   0  0  0  0  0  0  0  0  0  0  0  0
   -0.7500    1.2990    0.0000 C   0  0  0  0  0  0  0  0  0  0  0  0
   -1.5000    2.5981    0.0000 Cl  0  0  0  0  0  0  0  0  0  0  0  0
   -1.5000    0.0000    0.0000 C   0  0  0  0  0  0  0  0  0  0  0  0
   -0.7500   -1.2990    0.0000 C   0  0  0  0  0  0  0  0  0  0  0  0
   -3.7500   -3.8971    0.0000 C   0  0  0  0  0  0  0  0  0  0  0  0
   -3.0000   -5.1962    0.0000 C   0  0  0  0  0  0  0  0  0  0  0  0
   -5.2500   -3.8971    0.0000 C   0  0  0  0  0  0  0  0  0  0  0  0
  1  2  2  0
  2  3  1  0
  3  4  2  0
  3  5  1  0
  5  6  1  0
  6  7  1  0
  7  8  1  0
  8  9  1  0
  9 10  2  0
 10 11  1  0
 11 12  2  0
 11 13  1  0
 13 14  1  0
 14 15  2  0
 15 16  1  0
 16 17  2  0
 17 18  1  0
 18 19  2  0
 19 20  1  0
 20 21  1  0
 20 22  1  0
 13 23  1  0
 23 24  2  0
 24 25  1  0
 25 26  1  0
 26 27  2  0
 27 28  1  0
 27 29  1  0
 29 30  2  0
 30 31  1  0
 31 32  2  0
 32 33  1  0
 25 34  2  0
 34 35  1  0
 34 36  1  0
 36 37  2  0
  8 38  1  0
 38 39  1  1
 38 40  1  0
 40  5  1  0
 37  9  1  0
 19 14  1  0
 37 23  1  0
 32 26  1  0
M  END
>  <molecule_chembl_id>  (293) 
CHEMBL4449810

>  <canonical_smiles>  (293) 
C=CC(=O)N1CCN(c2nc(=O)n(-c3ccccc3C(C)C)c3cc(-c4c(O)cccc4F)c(Cl)cc23)[C@@H](C)C1

>  <pchembl_value_mean>  (293) 
7.55

>  <inchi>  (293) 
InChI=1S/C31H30ClFN4O3/c1-5-28(39)35-13-14-36(19(4)17-35)30-22-15-23(32)21(29-24(33)10-8-12-27(29)38)16-26(22)37(31(40)34-30)25-11-7-6-9-20(25)18(2)3/h5-12,15-16,18-19,38H,1,13-14,17H2,2-4H3/t19-/m0/s1

$$$$

     RDKit          2D

179183  0  0  0  0  0  0  0  0999 V2000
    7.4592   15.3348    0.0000 C   0  0  0  0  0  0  0  0  0  0  0  0
    6.1077   14.6840    0.0000 C   0  0  0  0  0  0  0  0  0  0  0  0
    5.9956   13.1882    0.0000 C   0  0  0  0  0  0  0  0  0  0  0  0
    7.2350   12.3432    0.0000 C   0  0  0  0  0  0  0  0  0  0  0  0
    4.6442   12.5373    0.0000 C   0  0  0  0  0  0  0  0  0  0  0  0
    5.1713   11.1330    0.0000 N   0  0  0  0  0  0  0  0  0  0  0  0
    5.4391    9.6571    0.0000 C   0  0  0  0  0  0  0  0  0  0  0  0
    6.9331    9.7915    0.0000 O   0  0  0  0  0  0  0  0  0  0  0  0
    5.4391    8.1571    0.0000 C   0  0  0  0  0  0  0  0  0  0  0  0
    6.9331    8.0226    0.0000 C   0  0  0  0  0  0  0  0  0  0  0  0
    7.5636    6.6616    0.0000 C   0  0  0  0  0  0  0  0  0  0  0  0
    6.7002    5.4350    0.0000 C   0  0  0  0  0  0  0  0  0  0  0  0
    7.3307    4.0740    0.0000 C   0  0  0  0  0  0  0  0  0  0  0  0
    8.8247    3.9395    0.0000 C   0  0  0  0  0  0  0  0  0  0  0  0
    9.4552    2.5785    0.0000 O   0  0  0  0  0  0  0  0  0  0  0  0
    9.6881    5.1661    0.0000 C   0  0  0  0  0  0  0  0  0  0  0  0
    9.0576    6.5271    0.0000 C   0  0  0  0  0  0  0  0  0  0  0  0
    5.1713    6.6812    0.0000 N   0  0  0  0  0  0  0  0  0  0  0  0
    4.6442    5.2768    0.0000 C   0  0  0  0  0  0  0  0  0  0  0  0
    5.9956    4.6260    0.0000 O   0  0  0  0  0  0  0  0  0  0  0  0
    3.8748    3.9892    0.0000 C   0  0  0  0  0  0  0  0  0  0  0  0
    5.0884    3.1075    0.0000 C   0  0  0  0  0  0  0  0  0  0  0  0
    4.9316    1.6157    0.0000 C   0  0  0  0  0  0  0  0  0  0  0  0
    6.1451    0.7340    0.0000 C   0  0  0  0  0  0  0  0  0  0  0  0
    3.5613    1.0056    0.0000 C   0  0  0  0  0  0  0  0  0  0  0  0
    2.8879    2.8596    0.0000 N   0  0  0  0  0  0  0  0  0  0  0  0
    1.7152    1.9243    0.0000 C   0  0  0  0  0  0  0  0  0  0  0  0
    2.5415    0.6725    0.0000 O   0  0  0  0  0  0  0  0  0  0  0  0
    0.3943    1.2135    0.0000 C   0  0  0  0  0  0  0  0  0  0  0  0
    1.2760    0.0000    0.0000 C   0  0  0  0  0  0  0  0  0  0  0  0
    0.3943   -1.2135    0.0000 C   0  0  0  0  0  0  0  0  0  0  0  0
   -1.0323   -0.7500    0.0000 C   0  0  0  0  0  0  0  0  0  0  0  0
   -1.0323    0.7500    0.0000 N   0  0  0  0  0  0  0  0  0  0  0  0
   -2.5187    0.5487    0.0000 C   0  0  0  0  0  0  0  0  0  0  0  0
   -2.4514   -0.9498    0.0000 O   0  0  0  0  0  0  0  0  0  0  0  0
   -4.0172    0.6159    0.0000 C   0  0  0  0  0  0  0  0  0  0  0  0
   -4.2186   -0.8705    0.0000 N   0  0  0  0  0  0  0  0  0  0  0  0
   -5.6065   -1.4393    0.0000 C   0  0  0  0  0  0  0  0  0  0  0  0
   -6.7931   -0.5217    0.0000 O   0  0  0  0  0  0  0  0  0  0  0  0
   -5.8079   -2.9257    0.0000 C   0  0  0  0  0  0  0  0  0  0  0  0
   -7.1958   -3.4946    0.0000 C   0  0  0  0  0  0  0  0  0  0  0  0
   -7.3972   -4.9810    0.0000 C   0  0  0  0  0  0  0  0  0  0  0  0
   -8.7851   -5.5498    0.0000 C   0  0  0  0  0  0  0  0  0  0  0  0
   -8.9865   -7.0363    0.0000 N   0  0  0  0  0  0  0  0  0  0  0  0
  -10.3744   -7.6051    0.0000 C   0  0  0  0  0  0  0  0  0  0  0  0
  -11.5610   -6.6875    0.0000 N   0  0  0  0  0  0  0  0  0  0  0  0
  -10.5758   -9.0915    0.0000 N   0  0  0  0  0  0  0  0  0  0  0  0
   -4.6213   -3.8433    0.0000 N   0  0  0  0  0  0  0  0  0  0  0  0
   -4.8226   -5.3298    0.0000 C   0  0  0  0  0  0  0  0  0  0  0  0
   -6.2106   -5.8986    0.0000 O   0  0  0  0  0  0  0  0  0  0  0  0
   -3.6360   -6.2473    0.0000 C   0  0  0  0  0  0  0  0  0  0  0  0
   -3.8373   -7.7338    0.0000 C   0  0  0  0  0  0  0  0  0  0  0  0
   -2.6507   -8.6513    0.0000 C   0  0  0  0  0  0  0  0  0  0  0  0
   -2.8521  -10.1378    0.0000 C   0  0  0  0  0  0  0  0  0  0  0  0
   -1.6655  -11.0554    0.0000 N   0  0  0  0  0  0  0  0  0  0  0  0
   -1.8668  -12.5418    0.0000 C   0  0  0  0  0  0  0  0  0  0  0  0
   -3.2548  -13.1106    0.0000 N   0  0  0  0  0  0  0  0  0  0  0  0
   -0.6802  -13.4594    0.0000 N   0  0  0  0  0  0  0  0  0  0  0  0
   -2.2480   -5.6785    0.0000 N   0  0  0  0  0  0  0  0  0  0  0  0
   -1.0614   -6.5961    0.0000 C   0  0  0  0  0  0  0  0  0  0  0  0
   -1.2628   -8.0825    0.0000 O   0  0  0  0  0  0  0  0  0  0  0  0
    0.3265   -6.0272    0.0000 C   0  0  0  0  0  0  0  0  0  0  0  0
    0.5279   -4.5408    0.0000 C   0  0  0  0  0  0  0  0  0  0  0  0
    1.9158   -3.9720    0.0000 C   0  0  0  0  0  0  0  0  0  0  0  0
    2.1172   -2.4856    0.0000 C   0  0  0  0  0  0  0  0  0  0  0  0
    3.5051   -1.9167    0.0000 N   0  0  0  0  0  0  0  0  0  0  0  0
    4.6917   -2.8343    0.0000 C   0  0  0  0  0  0  0  0  0  0  0  0
    6.0797   -2.2655    0.0000 N   0  0  0  0  0  0  0  0  0  0  0  0
    4.4904   -4.3207    0.0000 N   0  0  0  0  0  0  0  0  0  0  0  0
    1.5131   -6.9448    0.0000 N   0  0  0  0  0  0  0  0  0  0  0  0
    2.9011   -6.3760    0.0000 C   0  0  0  0  0  0  0  0  0  0  0  0
    3.1024   -4.8896    0.0000 O   0  0  0  0  0  0  0  0  0  0  0  0
    4.0877   -7.2936    0.0000 C   0  0  0  0  0  0  0  0  0  0  0  0
    5.4757   -6.7247    0.0000 C   0  0  0  0  0  0  0  0  0  0  0  0
    6.6623   -7.6423    0.0000 C   0  0  0  0  0  0  0  0  0  0  0  0
    8.0502   -7.0735    0.0000 C   0  0  0  0  0  0  0  0  0  0  0  0
    8.2516   -5.5871    0.0000 N   0  0  0  0  0  0  0  0  0  0  0  0
    9.6395   -5.0182    0.0000 C   0  0  0  0  0  0  0  0  0  0  0  0
   10.8261   -5.9358    0.0000 N   0  0  0  0  0  0  0  0  0  0  0  0
    9.8409   -3.5318    0.0000 N   0  0  0  0  0  0  0  0  0  0  0  0
    3.8863   -8.7800    0.0000 N   0  0  0  0  0  0  0  0  0  0  0  0
    2.4984   -9.3488    0.0000 C   0  0  0  0  0  0  0  0  0  0  0  0
    2.2970  -10.8353    0.0000 C   0  0  0  0  0  0  0  0  0  0  0  0
    1.3118   -8.4313    0.0000 O   0  0  0  0  0  0  0  0  0  0  0  0
   -5.4796    0.9497    0.0000 C   0  0  0  0  0  0  0  0  0  0  0  0
   -6.8589    1.5393    0.0000 S   0  0  0  0  0  0  0  0  0  0  0  0
   -8.1107    2.3656    0.0000 S   0  0  0  0  0  0  0  0  0  0  0  0
   -9.1949    3.4022    0.0000 C   0  0  0  0  0  0  0  0  0  0  0  0
  -10.0766    4.6157    0.0000 C   0  0  0  0  0  0  0  0  0  0  0  0
  -11.3643    3.8464    0.0000 C   0  0  0  0  0  0  0  0  0  0  0  0
  -11.3418    2.3466    0.0000 O   0  0  0  0  0  0  0  0  0  0  0  0
  -12.6744    4.5769    0.0000 N   0  0  0  0  0  0  0  0  0  0  0  0
  -13.9621    3.8075    0.0000 C   0  0  0  0  0  0  0  0  0  0  0  0
  -15.2722    4.5380    0.0000 C   0  0  0  0  0  0  0  0  0  0  0  0
  -16.5599    3.7687    0.0000 C   0  0  0  0  0  0  0  0  0  0  0  0
  -17.8700    4.4991    0.0000 C   0  0  0  0  0  0  0  0  0  0  0  0
  -19.1576    3.7298    0.0000 N   0  0  0  0  0  0  0  0  0  0  0  0
  -20.4678    4.4603    0.0000 C   0  0  0  0  0  0  0  0  0  0  0  0
  -20.4902    5.9601    0.0000 N   0  0  0  0  0  0  0  0  0  0  0  0
  -21.7554    3.6909    0.0000 N   0  0  0  0  0  0  0  0  0  0  0  0
  -13.9396    2.3077    0.0000 C   0  0  0  0  0  0  0  0  0  0  0  0
  -12.6295    1.5772    0.0000 O   0  0  0  0  0  0  0  0  0  0  0  0
  -15.2273    1.5383    0.0000 N   0  0  0  0  0  0  0  0  0  0  0  0
  -15.2049    0.0385    0.0000 C   0  0  0  0  0  0  0  0  0  0  0  0
  -13.8948   -0.6920    0.0000 C   0  0  0  0  0  0  0  0  0  0  0  0
  -13.8723   -2.1918    0.0000 C   0  0  0  0  0  0  0  0  0  0  0  0
  -12.5622   -2.9223    0.0000 C   0  0  0  0  0  0  0  0  0  0  0  0
  -12.5398   -4.4221    0.0000 N   0  0  0  0  0  0  0  0  0  0  0  0
  -13.8274   -5.1915    0.0000 C   0  0  0  0  0  0  0  0  0  0  0  0
  -13.8050   -6.6913    0.0000 N   0  0  0  0  0  0  0  0  0  0  0  0
  -15.1376   -4.4610    0.0000 N   0  0  0  0  0  0  0  0  0  0  0  0
  -16.4925   -0.7308    0.0000 C   0  0  0  0  0  0  0  0  0  0  0  0
  -17.8027   -0.0004    0.0000 O   0  0  0  0  0  0  0  0  0  0  0  0
  -16.4701   -2.2307    0.0000 N   0  0  0  0  0  0  0  0  0  0  0  0
  -17.7578   -3.0000    0.0000 C   0  0  0  0  0  0  0  0  0  0  0  0
  -17.7353   -4.4999    0.0000 C   0  0  0  0  0  0  0  0  0  0  0  0
  -16.4252   -5.2303    0.0000 C   0  0  0  0  0  0  0  0  0  0  0  0
  -16.4028   -6.7302    0.0000 C   0  0  0  0  0  0  0  0  0  0  0  0
  -15.0927   -7.4607    0.0000 N   0  0  0  0  0  0  0  0  0  0  0  0
  -15.0702   -8.9605    0.0000 C   0  0  0  0  0  0  0  0  0  0  0  0
  -16.3579   -9.7298    0.0000 N   0  0  0  0  0  0  0  0  0  0  0  0
  -13.7601   -9.6910    0.0000 N   0  0  0  0  0  0  0  0  0  0  0  0
  -19.0679   -2.2695    0.0000 C   0  0  0  0  0  0  0  0  0  0  0  0
  -19.0903   -0.7697    0.0000 O   0  0  0  0  0  0  0  0  0  0  0  0
  -20.3556   -3.0389    0.0000 N   0  0  0  0  0  0  0  0  0  0  0  0
  -21.6657   -2.3084    0.0000 C   0  0  0  0  0  0  0  0  0  0  0  0
  -22.9533   -3.0778    0.0000 C   0  0  0  0  0  0  0  0  0  0  0  0
  -24.2635   -2.3473    0.0000 C   0  0  0  0  0  0  0  0  0  0  0  0
  -25.5511   -3.1166    0.0000 C   0  0  0  0  0  0  0  0  0  0  0  0
  -26.8612   -2.3861    0.0000 N   0  0  0  0  0  0  0  0  0  0  0  0
  -28.1489   -3.1555    0.0000 C   0  0  0  0  0  0  0  0  0  0  0  0
  -28.1265   -4.6553    0.0000 N   0  0  0  0  0  0  0  0  0  0  0  0
  -29.4590   -2.4250    0.0000 N   0  0  0  0  0  0  0  0  0  0  0  0
  -21.6881   -0.8086    0.0000 C   0  0  0  0  0  0  0  0  0  0  0  0
  -20.4004   -0.0392    0.0000 N   0  0  0  0  0  0  0  0  0  0  0  0
  -22.9982   -0.0781    0.0000 O   0  0  0  0  0  0  0  0  0  0  0  0
  -10.7274    5.9672    0.0000 N   0  0  0  0  0  0  0  0  0  0  0  0
  -11.1265    7.4131    0.0000 C   0  0  0  0  0  0  0  0  0  0  0  0
  -12.6024    7.1453    0.0000 O   0  0  0  0  0  0  0  0  0  0  0  0
  -11.2610    8.9071    0.0000 C   0  0  0  0  0  0  0  0  0  0  0  0
  -12.7610    8.9071    0.0000 C   0  0  0  0  0  0  0  0  0  0  0  0
  -13.5110   10.2061    0.0000 C   0  0  0  0  0  0  0  0  0  0  0  0
  -13.5110    7.6081    0.0000 C   0  0  0  0  0  0  0  0  0  0  0  0
  -11.1265   10.4011    0.0000 N   0  0  0  0  0  0  0  0  0  0  0  0
  -10.7274   11.8470    0.0000 C   0  0  0  0  0  0  0  0  0  0  0  0
  -12.1318   12.3741    0.0000 O   0  0  0  0  0  0  0  0  0  0  0  0
  -10.0766   13.1984    0.0000 C   0  0  0  0  0  0  0  0  0  0  0  0
  -11.5032   13.6620    0.0000 C   0  0  0  0  0  0  0  0  0  0  0  0
  -11.5032   15.1620    0.0000 C   0  0  0  0  0  0  0  0  0  0  0  0
  -10.0766   15.6255    0.0000 C   0  0  0  0  0  0  0  0  0  0  0  0
   -9.1949   14.4120    0.0000 N   0  0  0  0  0  0  0  0  0  0  0  0
   -8.1107   15.4486    0.0000 C   0  0  0  0  0  0  0  0  0  0  0  0
   -9.0460   16.6213    0.0000 O   0  0  0  0  0  0  0  0  0  0  0  0
   -6.8589   16.2749    0.0000 C   0  0  0  0  0  0  0  0  0  0  0  0
   -7.5697   17.5958    0.0000 C   0  0  0  0  0  0  0  0  0  0  0  0
   -6.7812   18.8718    0.0000 C   0  0  0  0  0  0  0  0  0  0  0  0
   -5.2818   18.8270    0.0000 O   0  0  0  0  0  0  0  0  0  0  0  0
   -7.4920   20.1927    0.0000 O   0  0  0  0  0  0  0  0  0  0  0  0
   -5.4796   16.8645    0.0000 N   0  0  0  0  0  0  0  0  0  0  0  0
   -4.0172   17.1982    0.0000 C   0  0  0  0  0  0  0  0  0  0  0  0
   -4.2186   18.6847    0.0000 O   0  0  0  0  0  0  0  0  0  0  0  0
   -2.5187   17.2655    0.0000 C   0  0  0  0  0  0  0  0  0  0  0  0
   -2.4514   18.7640    0.0000 C   0  0  0  0  0  0  0  0  0  0  0  0
   -1.1200   19.4550    0.0000 C   0  0  0  0  0  0  0  0  0  0  0  0
    0.1440   18.6475    0.0000 C   0  0  0  0  0  0  0  0  0  0  0  0
    1.4754   19.3384    0.0000 C   0  0  0  0  0  0  0  0  0  0  0  0
    1.5427   20.8369    0.0000 C   0  0  0  0  0  0  0  0  0  0  0  0
    2.8741   21.5279    0.0000 O   0  0  0  0  0  0  0  0  0  0  0  0
    0.2786   21.6444    0.0000 C   0  0  0  0  0  0  0  0  0  0  0  0
   -1.0527   20.9535    0.0000 C   0  0  0  0  0  0  0  0  0  0  0  0
   -1.0323   17.0642    0.0000 N   0  0  0  0  0  0  0  0  0  0  0  0
    0.3943   16.6007    0.0000 C   0  0  0  0  0  0  0  0  0  0  0  0
    0.9838   17.9799    0.0000 O   0  0  0  0  0  0  0  0  0  0  0  0
    1.7152   15.8899    0.0000 C   0  0  0  0  0  0  0  0  0  0  0  0
    2.5415   17.1417    0.0000 C   0  0  0  0  0  0  0  0  0  0  0  0
    4.0389   17.0520    0.0000 O   0  0  0  0  0  0  0  0  0  0  0  0
    2.8879   14.9546    0.0000 N   0  0  0  0  0  0  0  0  0  0  0  0
    3.8748   13.8250    0.0000 C   0  0  0  0  0  0  0  0  0  0  0  0
    5.0884   14.7067    0.0000 O   0  0  0  0  0  0  0  0  0  0  0  0
  1  2  1  0
  2  3  1  0
  3  4  1  6
  3  5  1  0
  5  6  1  6
  6  7  1  0
  7  8  2  0
  7  9  1  0
  9 10  1  6
 10 11  1  0
 11 12  2  0
 12 13  1  0
 13 14  2  0
 14 15  1  0
 14 16  1  0
 16 17  2  0
  9 18  1  0
 18 19  1  0
 19 20  2  0
 19 21  1  0
 21 22  1  6
 22 23  1  0
 23 24  1  0
 23 25  1  0
 21 26  1  0
 26 27  1  0
 27 28  2  0
 27 29  1  0
 29 30  1  6
 30 31  1  0
 31 32  1  0
 32 33  1  0
 33 34  1  0
 34 35  2  0
 34 36  1  0
 36 37  1  1
 37 38  1  0
 38 39  2  0
 38 40  1  0
 40 41  1  1
 41 42  1  0
 42 43  1  0
 43 44  1  0
 44 45  1  0
 45 46  2  0
 45 47  1  0
 40 48  1  0
 48 49  1  0
 49 50  2  0
 49 51  1  0
 51 52  1  1
 52 53  1  0
 53 54  1  0
 54 55  1  0
 55 56  1  0
 56 57  2  0
 56 58  1  0
 51 59  1  0
 59 60  1  0
 60 61  2  0
 60 62  1  0
 62 63  1  6
 63 64  1  0
 64 65  1  0
 65 66  1  0
 66 67  1  0
 67 68  2  0
 67 69  1  0
 62 70  1  0
 70 71  1  0
 71 72  2  0
 71 73  1  0
 73 74  1  1
 74 75  1  0
 75 76  1  0
 76 77  1  0
 77 78  1  0
 78 79  2  0
 78 80  1  0
 73 81  1  0
 81 82  1  0
 82 83  1  0
 82 84  2  0
 36 85  1  0
 85 86  1  0
 86 87  1  0
 87 88  1  0
 88 89  1  0
 89 90  1  1
 90 91  2  0
 90 92  1  0
 92 93  1  0
 93 94  1  6
 94 95  1  0
 95 96  1  0
 96 97  1  0
 97 98  1  0
 98 99  2  0
 98100  1  0
 93101  1  0
101102  2  0
101103  1  0
103104  1  0
104105  1  1
105106  1  0
106107  1  0
107108  1  0
108109  1  0
109110  2  0
109111  1  0
104112  1  0
112113  2  0
112114  1  0
114115  1  0
115116  1  1
116117  1  0
117118  1  0
118119  1  0
119120  1  0
120121  2  0
120122  1  0
115123  1  0
123124  2  0
123125  1  0
125126  1  0
126127  1  6
127128  1  0
128129  1  0
129130  1  0
130131  1  0
131132  2  0
131133  1  0
126134  1  0
134135  1  0
134136  2  0
 89137  1  0
137138  1  0
138139  2  0
138140  1  0
140141  1  6
141142  1  0
141143  1  0
140144  1  0
144145  1  0
145146  2  0
145147  1  0
147148  1  6
148149  1  0
149150  1  0
150151  1  0
151152  1  0
152153  2  0
152154  1  0
154155  1  6
155156  1  0
156157  2  0
156158  1  0
154159  1  0
159160  1  0
160161  2  0
160162  1  0
162163  1  6
163164  1  0
164165  2  0
165166  1  0
166167  2  0
167168  1  0
167169  1  0
169170  2  0
162171  1  0
171172  1  0
172173  2  0
172174  1  0
174175  1  6
175176  1  0
174177  1  0
177178  1  0
178179  2  0
178  5  1  0
 17 11  1  0
 33 29  1  0
151147  1  0
170164  1  0
M  END
>  <molecule_chembl_id>  (294) 
CHEMBL4082777

>  <canonical_smiles>  (294) 
CC[C@H](C)[C@@H]1NC(=O)[C@H](Cc2ccc(O)cc2)NC(=O)[C@H](CC(C)C)NC(=O)[C@@H]2CCCN2C(=O)[C@@H](NC(=O)[C@H](CCCNC(=N)N)NC(=O)[C@H](CCCNC(=N)N)NC(=O)[C@H](CCCNC(=N)N)NC(=O)[C@@H](CCCNC(=N)N)NC(C)=O)CSSC[C@@H](C(=O)N[C@@H](CCCNC(=N)N)C(=O)N[C@@H](CCCNC(=N)N)C(=O)N[C@@H](CCCNC(=N)N)C(=O)N[C@H](CCCNC(=N)N)C(N)=O)NC(=O)[C@H](C(C)C)NC(=O)[C@@H]2CCCN2C(=O)[C@H](CC(=O)O)NC(=O)[C@H](Cc2ccc(O)cc2)NC(=O)[C@H](CO)NC1=O

>  <pchembl_value_mean>  (294) 
7.555

>  <inchi>  (294) 
InChI=1S/C108H182N44O25S2/c1-8-56(6)81-98(175)146-74(51-153)93(170)143-71(48-58-29-33-60(155)34-30-58)91(168)145-73(50-79(157)158)99(176)151-45-18-28-78(151)96(173)149-80(55(4)5)97(174)147-75(94(171)141-68(25-15-43-132-107(122)123)88(165)139-66(23-13-41-130-105(118)119)86(163)137-64(21-11-39-128-103(114)115)84(161)135-62(82(109)159)19-9-37-126-101(110)111)52-178-179-53-76(100(177)152-46-17-27-77(152)95(172)144-70(47-54(2)3)90(167)142-72(92(169)150-81)49-59-31-35-61(156)36-32-59)148-89(166)69(26-16-44-133-108(124)125)140-87(164)67(24-14-42-131-106(120)121)138-85(162)65(22-12-40-129-104(116)117)136-83(160)63(134-57(7)154)20-10-38-127-102(112)113/h29-36,54-56,62-78,80-81,153,155-156H,8-28,37-53H2,1-7H3,(H2,109,159)(H,134,154)(H,135,161)(H,136,160)(H,137,163)(H,138,162)(H,139,165)(H,140,164)(H,141,171)(H,142,167)(H,143,170)(H,144,172)(H,145,168)(H,146,175)(H,147,174)(H,148,166)(H,149,173)(H,150,169)(H,157,158)(H4,110,111,126)(H4,112,113,127)(H4,114,115,128)(H4,116,117,129)(H4,118,119,130)(H4,120,121,131)(H4,122,123,132)(H4,124,125,133)/t56-,62+,63+,64-,65-,66-,67-,68-,69-,70-,71-,72-,73-,74-,75-,76-,77-,78-,80-,81-/m0/s1

$$$$

     RDKit          2D

 41 45  0  0  0  0  0  0  0  0999 V2000
   -9.7500   -1.2990    0.0000 C   0  0  0  0  0  0  0  0  0  0  0  0
   -8.2500   -1.2990    0.0000 C   0  0  0  0  0  0  0  0  0  0  0  0
   -7.5000   -2.5981    0.0000 C   0  0  0  0  0  0  0  0  0  0  0  0
   -8.2500   -3.8971    0.0000 O   0  0  0  0  0  0  0  0  0  0  0  0
   -6.0000   -2.5981    0.0000 N   0  0  0  0  0  0  0  0  0  0  0  0
   -5.2500   -1.2990    0.0000 C   0  0  0  0  0  0  0  0  0  0  0  0
   -3.7500   -1.2990    0.0000 C   0  0  0  0  0  0  0  0  0  0  0  0
   -3.0000   -2.5981    0.0000 N   0  0  0  0  0  0  0  0  0  0  0  0
   -1.5000   -2.5981    0.0000 C   0  0  0  0  0  0  0  0  0  0  0  0
   -0.7500   -3.8971    0.0000 N   0  0  0  0  0  0  0  0  0  0  0  0
    0.7500   -3.8971    0.0000 C   0  0  0  0  0  0  0  0  0  0  0  0
    1.1772   -4.9037    0.0000 O   0  0  0  0  0  0  0  0  0  0  0  0
    1.5000   -2.5981    0.0000 N   0  0  0  0  0  0  0  0  0  0  0  0
    3.0000   -2.5981    0.0000 C   0  0  0  0  0  0  0  0  0  0  0  0
    3.7500   -1.2990    0.0000 C   0  0  0  0  0  0  0  0  0  0  0  0
    3.0000   -0.0000    0.0000 C   0  0  0  0  0  0  0  0  0  0  0  0
    5.2500   -1.2990    0.0000 C   0  0  0  0  0  0  0  0  0  0  0  0
    6.0000   -2.5981    0.0000 C   0  0  0  0  0  0  0  0  0  0  0  0
    5.2500   -3.8971    0.0000 N   0  0  0  0  0  0  0  0  0  0  0  0
    3.7500   -3.8971    0.0000 C   0  0  0  0  0  0  0  0  0  0  0  0
    3.0000   -5.1962    0.0000 C   0  0  0  0  0  0  0  0  0  0  0  0
    3.7500   -6.4952    0.0000 C   0  0  0  0  0  0  0  0  0  0  0  0
    1.9147   -5.3294    0.0000 C   0  0  0  0  0  0  0  0  0  0  0  0
    0.7500   -1.2990    0.0000 C   0  0  0  0  0  0  0  0  0  0  0  0
    1.5000    0.0000    0.0000 N   0  0  0  0  0  0  0  0  0  0  0  0
    0.7500    1.2990    0.0000 C   0  0  0  0  0  0  0  0  0  0  0  0
    1.5000    2.5981    0.0000 C   0  0  0  0  0  0  0  0  0  0  0  0
    3.0000    2.5981    0.0000 C   0  0  0  0  0  0  0  0  0  0  0  0
    3.7500    1.2990    0.0000 O   0  0  0  0  0  0  0  0  0  0  0  0
    3.7500    3.8971    0.0000 C   0  0  0  0  0  0  0  0  0  0  0  0
    3.0000    5.1962    0.0000 C   0  0  0  0  0  0  0  0  0  0  0  0
    1.5000    5.1962    0.0000 C   0  0  0  0  0  0  0  0  0  0  0  0
    0.7500    3.8971    0.0000 C   0  0  0  0  0  0  0  0  0  0  0  0
   -0.7500    3.8971    0.0000 F   0  0  0  0  0  0  0  0  0  0  0  0
   -0.7500    1.2990    0.0000 C   0  0  0  0  0  0  0  0  0  0  0  0
   -1.5000    2.5981    0.0000 F   0  0  0  0  0  0  0  0  0  0  0  0
   -1.5000    0.0000    0.0000 C   0  0  0  0  0  0  0  0  0  0  0  0
   -0.7500   -1.2990    0.0000 C   0  0  0  0  0  0  0  0  0  0  0  0
   -3.7500   -3.8971    0.0000 C   0  0  0  0  0  0  0  0  0  0  0  0
   -3.0000   -5.1962    0.0000 C   0  0  0  0  0  0  0  0  0  0  0  0
   -5.2500   -3.8971    0.0000 C   0  0  0  0  0  0  0  0  0  0  0  0
  1  2  2  0
  2  3  1  0
  3  4  2  0
  3  5  1  0
  5  6  1  0
  6  7  1  0
  7  8  1  0
  8  9  1  0
  9 10  2  0
 10 11  1  0
 11 12  2  0
 11 13  1  0
 13 14  1  0
 14 15  2  0
 15 16  1  0
 15 17  1  0
 17 18  2  0
 18 19  1  0
 19 20  2  0
 20 21  1  0
 21 22  1  0
 21 23  1  0
 13 24  1  0
 24 25  2  0
 25 26  1  0
 26 27  1  0
 27 28  2  0
 28 29  1  0
 28 30  1  0
 30 31  2  0
 31 32  1  0
 32 33  2  0
 33 34  1  0
 26 35  2  0
 35 36  1  0
 35 37  1  0
 37 38  2  0
  8 39  1  0
 39 40  1  1
 39 41  1  0
 41  5  1  0
 38  9  1  0
 20 14  1  0
 38 24  1  0
 33 27  1  0
M  END
>  <molecule_chembl_id>  (295) 
CHEMBL4535757

>  <canonical_smiles>  (295) 
C=CC(=O)N1CCN(c2nc(=O)n(-c3c(C)ccnc3C(C)C)c3nc(-c4c(O)cccc4F)c(F)cc23)[C@@H](C)C1

>  <pchembl_value_mean>  (295) 
7.57

>  <inchi>  (295) 
InChI=1S/C30H30F2N6O3/c1-6-23(40)36-12-13-37(18(5)15-36)28-19-14-21(32)26(24-20(31)8-7-9-22(24)39)34-29(19)38(30(41)35-28)27-17(4)10-11-33-25(27)16(2)3/h6-11,14,16,18,39H,1,12-13,15H2,2-5H3/t18-/m0/s1

$$$$

     RDKit          2D

 41 45  0  0  0  0  0  0  0  0999 V2000
   -9.7500   -1.2990    0.0000 C   0  0  0  0  0  0  0  0  0  0  0  0
   -8.2500   -1.2990    0.0000 C   0  0  0  0  0  0  0  0  0  0  0  0
   -7.5000   -2.5981    0.0000 C   0  0  0  0  0  0  0  0  0  0  0  0
   -8.2500   -3.8971    0.0000 O   0  0  0  0  0  0  0  0  0  0  0  0
   -6.0000   -2.5981    0.0000 N   0  0  0  0  0  0  0  0  0  0  0  0
   -5.2500   -1.2990    0.0000 C   0  0  0  0  0  0  0  0  0  0  0  0
   -3.7500   -1.2990    0.0000 C   0  0  0  0  0  0  0  0  0  0  0  0
   -3.0000   -2.5981    0.0000 N   0  0  0  0  0  0  0  0  0  0  0  0
   -1.5000   -2.5981    0.0000 C   0  0  0  0  0  0  0  0  0  0  0  0
   -0.7500   -3.8971    0.0000 N   0  0  0  0  0  0  0  0  0  0  0  0
    0.7500   -3.8971    0.0000 C   0  0  0  0  0  0  0  0  0  0  0  0
    1.1772   -4.9037    0.0000 O   0  0  0  0  0  0  0  0  0  0  0  0
    1.5000   -2.5981    0.0000 N   0  0  0  0  0  0  0  0  0  0  0  0
    3.0000   -2.5981    0.0000 C   0  0  0  0  0  0  0  0  0  0  0  0
    3.7500   -1.2990    0.0000 C   0  0  0  0  0  0  0  0  0  0  0  0
    3.0000   -0.0000    0.0000 C   0  0  0  0  0  0  0  0  0  0  0  0
    5.2500   -1.2990    0.0000 C   0  0  0  0  0  0  0  0  0  0  0  0
    6.0000   -2.5981    0.0000 C   0  0  0  0  0  0  0  0  0  0  0  0
    5.2500   -3.8971    0.0000 C   0  0  0  0  0  0  0  0  0  0  0  0
    3.7500   -3.8971    0.0000 C   0  0  0  0  0  0  0  0  0  0  0  0
    3.0000   -5.1962    0.0000 C   0  0  0  0  0  0  0  0  0  0  0  0
    3.7500   -6.4952    0.0000 C   0  0  0  0  0  0  0  0  0  0  0  0
    1.9147   -5.3294    0.0000 C   0  0  0  0  0  0  0  0  0  0  0  0
    0.7500   -1.2990    0.0000 C   0  0  0  0  0  0  0  0  0  0  0  0
    1.5000    0.0000    0.0000 N   0  0  0  0  0  0  0  0  0  0  0  0
    0.7500    1.2990    0.0000 C   0  0  0  0  0  0  0  0  0  0  0  0
    1.5000    2.5981    0.0000 C   0  0  0  0  0  0  0  0  0  0  0  0
    3.0000    2.5981    0.0000 C   0  0  0  0  0  0  0  0  0  0  0  0
    3.7500    1.2990    0.0000 O   0  0  0  0  0  0  0  0  0  0  0  0
    3.7500    3.8971    0.0000 C   0  0  0  0  0  0  0  0  0  0  0  0
    3.0000    5.1962    0.0000 C   0  0  0  0  0  0  0  0  0  0  0  0
    1.5000    5.1962    0.0000 C   0  0  0  0  0  0  0  0  0  0  0  0
    0.7500    3.8971    0.0000 C   0  0  0  0  0  0  0  0  0  0  0  0
   -0.7500    3.8971    0.0000 F   0  0  0  0  0  0  0  0  0  0  0  0
   -0.7500    1.2990    0.0000 C   0  0  0  0  0  0  0  0  0  0  0  0
   -1.5000    2.5981    0.0000 Cl  0  0  0  0  0  0  0  0  0  0  0  0
   -1.5000    0.0000    0.0000 C   0  0  0  0  0  0  0  0  0  0  0  0
   -0.7500   -1.2990    0.0000 C   0  0  0  0  0  0  0  0  0  0  0  0
   -3.7500   -3.8971    0.0000 C   0  0  0  0  0  0  0  0  0  0  0  0
   -3.0000   -5.1962    0.0000 C   0  0  0  0  0  0  0  0  0  0  0  0
   -5.2500   -3.8971    0.0000 C   0  0  0  0  0  0  0  0  0  0  0  0
  1  2  2  0
  2  3  1  0
  3  4  2  0
  3  5  1  0
  5  6  1  0
  6  7  1  0
  7  8  1  0
  8  9  1  0
  9 10  2  0
 10 11  1  0
 11 12  2  0
 11 13  1  0
 13 14  1  0
 14 15  2  0
 15 16  1  0
 15 17  1  0
 17 18  2  0
 18 19  1  0
 19 20  2  0
 20 21  1  0
 21 22  1  0
 21 23  1  0
 13 24  1  0
 24 25  2  0
 25 26  1  0
 26 27  1  0
 27 28  2  0
 28 29  1  0
 28 30  1  0
 30 31  2  0
 31 32  1  0
 32 33  2  0
 33 34  1  0
 26 35  2  0
 35 36  1  0
 35 37  1  0
 37 38  2  0
  8 39  1  0
 39 40  1  1
 39 41  1  0
 41  5  1  0
 38  9  1  0
 20 14  1  0
 38 24  1  0
 33 27  1  0
M  END
>  <molecule_chembl_id>  (296) 
CHEMBL4452137

>  <canonical_smiles>  (296) 
C=CC(=O)N1CCN(c2nc(=O)n(-c3c(C)cccc3C(C)C)c3nc(-c4c(O)cccc4F)c(Cl)cc23)[C@@H](C)C1

>  <pchembl_value_mean>  (296) 
7.575

>  <inchi>  (296) 
InChI=1S/C31H31ClFN5O3/c1-6-25(40)36-13-14-37(19(5)16-36)29-21-15-22(32)27(26-23(33)11-8-12-24(26)39)34-30(21)38(31(41)35-29)28-18(4)9-7-10-20(28)17(2)3/h6-12,15,17,19,39H,1,13-14,16H2,2-5H3/t19-/m0/s1

$$$$

     RDKit          2D

149155  0  0  0  0  0  0  0  0999 V2000
    7.4592   15.3348    0.0000 C   0  0  0  0  0  0  0  0  0  0  0  0
    6.1077   14.6840    0.0000 C   0  0  0  0  0  0  0  0  0  0  0  0
    5.9956   13.1882    0.0000 C   0  0  0  0  0  0  0  0  0  0  0  0
    7.2350   12.3432    0.0000 C   0  0  0  0  0  0  0  0  0  0  0  0
    4.6442   12.5373    0.0000 C   0  0  0  0  0  0  0  0  0  0  0  0
    5.1713   11.1330    0.0000 N   0  0  0  0  0  0  0  0  0  0  0  0
    5.4391    9.6571    0.0000 C   0  0  0  0  0  0  0  0  0  0  0  0
    6.9331    9.7915    0.0000 O   0  0  0  0  0  0  0  0  0  0  0  0
    5.4391    8.1571    0.0000 C   0  0  0  0  0  0  0  0  0  0  0  0
    6.9331    8.0226    0.0000 C   0  0  0  0  0  0  0  0  0  0  0  0
    7.5636    6.6616    0.0000 C   0  0  0  0  0  0  0  0  0  0  0  0
    6.7002    5.4350    0.0000 C   0  0  0  0  0  0  0  0  0  0  0  0
    7.3307    4.0740    0.0000 C   0  0  0  0  0  0  0  0  0  0  0  0
    8.8247    3.9395    0.0000 C   0  0  0  0  0  0  0  0  0  0  0  0
    9.4552    2.5785    0.0000 C   0  0  0  0  0  0  0  0  0  0  0  0
    8.5918    1.3519    0.0000 C   0  0  0  0  0  0  0  0  0  0  0  0
    9.2223   -0.0091    0.0000 C   0  0  0  0  0  0  0  0  0  0  0  0
   10.7163   -0.1436    0.0000 C   0  0  0  0  0  0  0  0  0  0  0  0
   11.5797    1.0830    0.0000 C   0  0  0  0  0  0  0  0  0  0  0  0
   10.9492    2.4440    0.0000 C   0  0  0  0  0  0  0  0  0  0  0  0
    9.6881    5.1661    0.0000 C   0  0  0  0  0  0  0  0  0  0  0  0
    9.0576    6.5271    0.0000 C   0  0  0  0  0  0  0  0  0  0  0  0
    5.1713    6.6812    0.0000 N   0  0  0  0  0  0  0  0  0  0  0  0
    4.6442    5.2768    0.0000 C   0  0  0  0  0  0  0  0  0  0  0  0
    5.9956    4.6260    0.0000 O   0  0  0  0  0  0  0  0  0  0  0  0
    3.8748    3.9892    0.0000 C   0  0  0  0  0  0  0  0  0  0  0  0
    5.0884    3.1075    0.0000 C   0  0  0  0  0  0  0  0  0  0  0  0
    4.9316    1.6157    0.0000 C   0  0  0  0  0  0  0  0  0  0  0  0
    6.1451    0.7340    0.0000 C   0  0  0  0  0  0  0  0  0  0  0  0
    3.5613    1.0056    0.0000 C   0  0  0  0  0  0  0  0  0  0  0  0
    2.8879    2.8596    0.0000 N   0  0  0  0  0  0  0  0  0  0  0  0
    1.7152    1.9243    0.0000 C   0  0  0  0  0  0  0  0  0  0  0  0
    2.5415    0.6725    0.0000 O   0  0  0  0  0  0  0  0  0  0  0  0
    0.3943    1.2135    0.0000 C   0  0  0  0  0  0  0  0  0  0  0  0
    1.2760    0.0000    0.0000 C   0  0  0  0  0  0  0  0  0  0  0  0
    0.3943   -1.2135    0.0000 C   0  0  0  0  0  0  0  0  0  0  0  0
   -1.0323   -0.7500    0.0000 C   0  0  0  0  0  0  0  0  0  0  0  0
   -1.0323    0.7500    0.0000 N   0  0  0  0  0  0  0  0  0  0  0  0
   -2.5187    0.5487    0.0000 C   0  0  0  0  0  0  0  0  0  0  0  0
   -2.4514   -0.9498    0.0000 O   0  0  0  0  0  0  0  0  0  0  0  0
   -4.0172    0.6159    0.0000 C   0  0  0  0  0  0  0  0  0  0  0  0
   -4.2186   -0.8705    0.0000 N   0  0  0  0  0  0  0  0  0  0  0  0
   -5.6065   -1.4393    0.0000 C   0  0  0  0  0  0  0  0  0  0  0  0
   -6.7931   -0.5217    0.0000 O   0  0  0  0  0  0  0  0  0  0  0  0
   -5.8079   -2.9257    0.0000 C   0  0  0  0  0  0  0  0  0  0  0  0
   -7.1958   -3.4946    0.0000 C   0  0  0  0  0  0  0  0  0  0  0  0
   -7.3972   -4.9810    0.0000 C   0  0  0  0  0  0  0  0  0  0  0  0
   -8.7851   -5.5498    0.0000 C   0  0  0  0  0  0  0  0  0  0  0  0
   -8.9865   -7.0363    0.0000 N   0  0  0  0  0  0  0  0  0  0  0  0
  -10.3744   -7.6051    0.0000 C   0  0  0  0  0  0  0  0  0  0  0  0
  -11.5610   -6.6875    0.0000 N   0  0  0  0  0  0  0  0  0  0  0  0
  -10.5758   -9.0915    0.0000 N   0  0  0  0  0  0  0  0  0  0  0  0
   -4.6213   -3.8433    0.0000 N   0  0  0  0  0  0  0  0  0  0  0  0
   -4.8226   -5.3298    0.0000 C   0  0  0  0  0  0  0  0  0  0  0  0
   -6.2106   -5.8986    0.0000 O   0  0  0  0  0  0  0  0  0  0  0  0
   -3.6360   -6.2473    0.0000 C   0  0  0  0  0  0  0  0  0  0  0  0
   -3.8373   -7.7338    0.0000 C   0  0  0  0  0  0  0  0  0  0  0  0
   -2.6507   -8.6513    0.0000 C   0  0  0  0  0  0  0  0  0  0  0  0
   -2.8521  -10.1378    0.0000 C   0  0  0  0  0  0  0  0  0  0  0  0
   -1.6655  -11.0554    0.0000 N   0  0  0  0  0  0  0  0  0  0  0  0
   -1.8668  -12.5418    0.0000 C   0  0  0  0  0  0  0  0  0  0  0  0
   -3.2548  -13.1106    0.0000 N   0  0  0  0  0  0  0  0  0  0  0  0
   -0.6802  -13.4594    0.0000 N   0  0  0  0  0  0  0  0  0  0  0  0
   -2.2480   -5.6785    0.0000 N   0  0  0  0  0  0  0  0  0  0  0  0
   -1.0614   -6.5961    0.0000 C   0  0  0  0  0  0  0  0  0  0  0  0
    0.3265   -6.0272    0.0000 C   0  0  0  0  0  0  0  0  0  0  0  0
   -1.2628   -8.0825    0.0000 O   0  0  0  0  0  0  0  0  0  0  0  0
   -5.4796    0.9497    0.0000 C   0  0  0  0  0  0  0  0  0  0  0  0
   -6.8589    1.5393    0.0000 S   0  0  0  0  0  0  0  0  0  0  0  0
   -8.1107    2.3656    0.0000 S   0  0  0  0  0  0  0  0  0  0  0  0
   -9.1949    3.4022    0.0000 C   0  0  0  0  0  0  0  0  0  0  0  0
  -10.0766    4.6157    0.0000 C   0  0  0  0  0  0  0  0  0  0  0  0
  -11.3643    3.8464    0.0000 C   0  0  0  0  0  0  0  0  0  0  0  0
  -11.3418    2.3466    0.0000 O   0  0  0  0  0  0  0  0  0  0  0  0
  -12.6744    4.5769    0.0000 N   0  0  0  0  0  0  0  0  0  0  0  0
  -13.9621    3.8075    0.0000 C   0  0  0  0  0  0  0  0  0  0  0  0
  -15.2722    4.5380    0.0000 C   0  0  0  0  0  0  0  0  0  0  0  0
  -16.5599    3.7687    0.0000 C   0  0  0  0  0  0  0  0  0  0  0  0
  -17.8700    4.4991    0.0000 C   0  0  0  0  0  0  0  0  0  0  0  0
  -19.1576    3.7298    0.0000 N   0  0  0  0  0  0  0  0  0  0  0  0
  -20.4678    4.4603    0.0000 C   0  0  0  0  0  0  0  0  0  0  0  0
  -20.4902    5.9601    0.0000 N   0  0  0  0  0  0  0  0  0  0  0  0
  -21.7554    3.6909    0.0000 N   0  0  0  0  0  0  0  0  0  0  0  0
  -13.9396    2.3077    0.0000 C   0  0  0  0  0  0  0  0  0  0  0  0
  -12.6295    1.5772    0.0000 O   0  0  0  0  0  0  0  0  0  0  0  0
  -15.2273    1.5383    0.0000 N   0  0  0  0  0  0  0  0  0  0  0  0
  -15.2049    0.0385    0.0000 C   0  0  0  0  0  0  0  0  0  0  0  0
  -16.4925   -0.7308    0.0000 C   0  0  0  0  0  0  0  0  0  0  0  0
  -16.4701   -2.2307    0.0000 C   0  0  0  0  0  0  0  0  0  0  0  0
  -17.7578   -3.0000    0.0000 C   0  0  0  0  0  0  0  0  0  0  0  0
  -17.7353   -4.4999    0.0000 N   0  0  0  0  0  0  0  0  0  0  0  0
  -19.0230   -5.2692    0.0000 C   0  0  0  0  0  0  0  0  0  0  0  0
  -20.3331   -4.5387    0.0000 N   0  0  0  0  0  0  0  0  0  0  0  0
  -19.0006   -6.7690    0.0000 N   0  0  0  0  0  0  0  0  0  0  0  0
  -13.8948   -0.6920    0.0000 C   0  0  0  0  0  0  0  0  0  0  0  0
  -13.8723   -2.1918    0.0000 N   0  0  0  0  0  0  0  0  0  0  0  0
  -12.6071    0.0774    0.0000 O   0  0  0  0  0  0  0  0  0  0  0  0
  -10.7274    5.9672    0.0000 N   0  0  0  0  0  0  0  0  0  0  0  0
  -11.1265    7.4131    0.0000 C   0  0  0  0  0  0  0  0  0  0  0  0
  -12.6024    7.1453    0.0000 O   0  0  0  0  0  0  0  0  0  0  0  0
  -11.2610    8.9071    0.0000 C   0  0  0  0  0  0  0  0  0  0  0  0
  -12.7610    8.9071    0.0000 C   0  0  0  0  0  0  0  0  0  0  0  0
  -13.5110   10.2061    0.0000 C   0  0  0  0  0  0  0  0  0  0  0  0
  -12.7610   11.5052    0.0000 C   0  0  0  0  0  0  0  0  0  0  0  0
  -13.5110   12.8042    0.0000 C   0  0  0  0  0  0  0  0  0  0  0  0
  -15.0110   12.8042    0.0000 C   0  0  0  0  0  0  0  0  0  0  0  0
  -15.7610   11.5052    0.0000 C   0  0  0  0  0  0  0  0  0  0  0  0
  -15.0110   10.2061    0.0000 C   0  0  0  0  0  0  0  0  0  0  0  0
  -11.1265   10.4011    0.0000 N   0  0  0  0  0  0  0  0  0  0  0  0
  -10.7274   11.8470    0.0000 C   0  0  0  0  0  0  0  0  0  0  0  0
  -12.1318   12.3741    0.0000 O   0  0  0  0  0  0  0  0  0  0  0  0
  -10.0766   13.1984    0.0000 C   0  0  0  0  0  0  0  0  0  0  0  0
  -11.5032   13.6620    0.0000 C   0  0  0  0  0  0  0  0  0  0  0  0
  -11.5032   15.1620    0.0000 C   0  0  0  0  0  0  0  0  0  0  0  0
  -12.7167   16.0437    0.0000 O   0  0  0  0  0  0  0  0  0  0  0  0
  -12.5599   17.5354    0.0000 C   0  0  0  0  0  0  0  0  0  0  0  0
  -13.7735   18.4171    0.0000 C   0  0  0  0  0  0  0  0  0  0  0  0
  -15.1438   17.8070    0.0000 O   0  0  0  0  0  0  0  0  0  0  0  0
  -13.6167   19.9089    0.0000 O   0  0  0  0  0  0  0  0  0  0  0  0
  -10.0766   15.6255    0.0000 C   0  0  0  0  0  0  0  0  0  0  0  0
   -9.1949   14.4120    0.0000 N   0  0  0  0  0  0  0  0  0  0  0  0
   -8.1107   15.4486    0.0000 C   0  0  0  0  0  0  0  0  0  0  0  0
   -9.0460   16.6213    0.0000 O   0  0  0  0  0  0  0  0  0  0  0  0
   -6.8589   16.2749    0.0000 C   0  0  0  0  0  0  0  0  0  0  0  0
   -7.5697   17.5958    0.0000 C   0  0  0  0  0  0  0  0  0  0  0  0
   -6.7812   18.8718    0.0000 C   0  0  0  0  0  0  0  0  0  0  0  0
   -5.2818   18.8270    0.0000 O   0  0  0  0  0  0  0  0  0  0  0  0
   -7.4920   20.1927    0.0000 O   0  0  0  0  0  0  0  0  0  0  0  0
   -5.4796   16.8645    0.0000 N   0  0  0  0  0  0  0  0  0  0  0  0
   -4.0172   17.1982    0.0000 C   0  0  0  0  0  0  0  0  0  0  0  0
   -4.2186   18.6847    0.0000 O   0  0  0  0  0  0  0  0  0  0  0  0
   -2.5187   17.2655    0.0000 C   0  0  0  0  0  0  0  0  0  0  0  0
   -2.4514   18.7640    0.0000 C   0  0  0  0  0  0  0  0  0  0  0  0
   -1.1200   19.4550    0.0000 C   0  0  0  0  0  0  0  0  0  0  0  0
    0.1440   18.6475    0.0000 C   0  0  0  0  0  0  0  0  0  0  0  0
    1.4754   19.3384    0.0000 C   0  0  0  0  0  0  0  0  0  0  0  0
    1.5427   20.8369    0.0000 C   0  0  0  0  0  0  0  0  0  0  0  0
    2.8741   21.5279    0.0000 O   0  0  0  0  0  0  0  0  0  0  0  0
    0.2786   21.6444    0.0000 C   0  0  0  0  0  0  0  0  0  0  0  0
   -1.0527   20.9535    0.0000 C   0  0  0  0  0  0  0  0  0  0  0  0
   -1.0323   17.0642    0.0000 N   0  0  0  0  0  0  0  0  0  0  0  0
    0.3943   16.6007    0.0000 C   0  0  0  0  0  0  0  0  0  0  0  0
    0.9838   17.9799    0.0000 O   0  0  0  0  0  0  0  0  0  0  0  0
    1.7152   15.8899    0.0000 C   0  0  0  0  0  0  0  0  0  0  0  0
    2.5415   17.1417    0.0000 C   0  0  0  0  0  0  0  0  0  0  0  0
    4.0389   17.0520    0.0000 O   0  0  0  0  0  0  0  0  0  0  0  0
    2.8879   14.9546    0.0000 N   0  0  0  0  0  0  0  0  0  0  0  0
    3.8748   13.8250    0.0000 C   0  0  0  0  0  0  0  0  0  0  0  0
    5.0884   14.7067    0.0000 O   0  0  0  0  0  0  0  0  0  0  0  0
  1  2  1  0
  2  3  1  0
  3  4  1  6
  3  5  1  0
  5  6  1  6
  6  7  1  0
  7  8  2  0
  7  9  1  0
  9 10  1  6
 10 11  1  0
 11 12  2  0
 12 13  1  0
 13 14  2  0
 14 15  1  0
 15 16  2  0
 16 17  1  0
 17 18  2  0
 18 19  1  0
 19 20  2  0
 14 21  1  0
 21 22  2  0
  9 23  1  0
 23 24  1  0
 24 25  2  0
 24 26  1  0
 26 27  1  6
 27 28  1  0
 28 29  1  0
 28 30  1  0
 26 31  1  0
 31 32  1  0
 32 33  2  0
 32 34  1  0
 34 35  1  6
 35 36  1  0
 36 37  1  0
 37 38  1  0
 38 39  1  0
 39 40  2  0
 39 41  1  0
 41 42  1  1
 42 43  1  0
 43 44  2  0
 43 45  1  0
 45 46  1  1
 46 47  1  0
 47 48  1  0
 48 49  1  0
 49 50  1  0
 50 51  2  0
 50 52  1  0
 45 53  1  0
 53 54  1  0
 54 55  2  0
 54 56  1  0
 56 57  1  1
 57 58  1  0
 58 59  1  0
 59 60  1  0
 60 61  1  0
 61 62  2  0
 61 63  1  0
 56 64  1  0
 64 65  1  0
 65 66  1  0
 65 67  2  0
 41 68  1  0
 68 69  1  0
 69 70  1  0
 70 71  1  0
 71 72  1  0
 72 73  1  1
 73 74  2  0
 73 75  1  0
 75 76  1  0
 76 77  1  6
 77 78  1  0
 78 79  1  0
 79 80  1  0
 80 81  1  0
 81 82  2  0
 81 83  1  0
 76 84  1  0
 84 85  2  0
 84 86  1  0
 86 87  1  0
 87 88  1  6
 88 89  1  0
 89 90  1  0
 90 91  1  0
 91 92  1  0
 92 93  2  0
 92 94  1  0
 87 95  1  0
 95 96  1  0
 95 97  2  0
 72 98  1  0
 98 99  1  0
 99100  2  0
 99101  1  0
101102  1  6
102103  1  0
103104  1  0
104105  1  0
105106  1  0
106107  1  0
107108  1  0
101109  1  0
109110  1  0
110111  2  0
110112  1  0
112113  1  6
113114  1  0
114115  1  6
115116  1  0
116117  1  0
117118  2  0
117119  1  0
114120  1  0
120121  1  0
121122  1  0
122123  2  0
122124  1  0
124125  1  6
125126  1  0
126127  2  0
126128  1  0
124129  1  0
129130  1  0
130131  2  0
130132  1  0
132133  1  6
133134  1  0
134135  2  0
135136  1  0
136137  2  0
137138  1  0
137139  1  0
139140  2  0
132141  1  0
141142  1  0
142143  2  0
142144  1  0
144145  1  6
145146  1  0
144147  1  0
147148  1  0
148149  2  0
148  5  1  0
 22 11  1  0
 38 34  1  0
108103  1  0
121112  1  0
140134  1  0
 20 15  1  0
M  END
>  <molecule_chembl_id>  (297) 
CHEMBL5200054

>  <canonical_smiles>  (297) 
CC[C@H](C)[C@@H]1NC(=O)[C@H](Cc2ccc(-c3ccccc3)cc2)NC(=O)[C@H](CC(C)C)NC(=O)[C@@H]2CCCN2C(=O)[C@@H](NC(=O)[C@H](CCCNC(=N)N)NC(=O)[C@H](CCCNC(=N)N)NC(C)=O)CSSC[C@@H](C(=O)N[C@@H](CCCNC(=N)N)C(=O)N[C@@H](CCCNC(=N)N)C(N)=O)NC(=O)[C@H](CC2CCCCC2)NC(=O)[C@@H]2C[C@H](OCC(=O)O)CN2C(=O)[C@H](CC(=O)O)NC(=O)[C@H](Cc2ccc(O)cc2)NC(=O)[C@H](CO)NC1=O

>  <pchembl_value_mean>  (297) 
7.6

>  <inchi>  (297) 
InChI=1S/C96H146N28O23S2/c1-6-52(4)77-90(144)119-70(47-125)86(140)115-66(43-56-29-33-59(127)34-30-56)83(137)118-69(45-75(128)129)91(145)124-46-60(147-48-76(130)131)44-74(124)89(143)117-67(41-54-18-9-7-10-19-54)84(138)120-71(87(141)113-63(24-15-37-108-95(102)103)80(134)111-61(78(97)132)22-13-35-106-93(98)99)49-148-149-50-72(121-81(135)64(25-16-38-109-96(104)105)112-79(133)62(110-53(5)126)23-14-36-107-94(100)101)92(146)123-39-17-26-73(123)88(142)116-65(40-51(2)3)82(136)114-68(85(139)122-77)42-55-27-31-58(32-28-55)57-20-11-8-12-21-57/h8,11-12,20-21,27-34,51-52,54,60-74,77,125,127H,6-7,9-10,13-19,22-26,35-50H2,1-5H3,(H2,97,132)(H,110,126)(H,111,134)(H,112,133)(H,113,141)(H,114,136)(H,115,140)(H,116,142)(H,117,143)(H,118,137)(H,119,144)(H,120,138)(H,121,135)(H,122,139)(H,128,129)(H,130,131)(H4,98,99,106)(H4,100,101,107)(H4,102,103,108)(H4,104,105,109)/t52-,60-,61-,62-,63-,64-,65-,66-,67-,68-,69-,70-,71-,72-,73-,74-,77-/m0/s1

$$$$

     RDKit          2D

 42 49  0  0  0  0  0  0  0  0999 V2000
   -4.5000   -2.5981    0.0000 C   0  0  0  0  0  0  0  0  0  0  0  0
   -3.0000   -2.5981    0.0000 C   0  0  0  0  0  0  0  0  0  0  0  0
   -1.5000   -2.5981    0.0000 C   0  0  0  0  0  0  0  0  0  0  0  0
   -0.7500   -3.8971    0.0000 C   0  0  0  0  0  0  0  0  0  0  0  0
   -1.5000   -5.1962    0.0000 F   0  0  0  0  0  0  0  0  0  0  0  0
    0.7500   -3.8971    0.0000 C   0  0  0  0  0  0  0  0  0  0  0  0
    1.5000   -2.5981    0.0000 C   0  0  0  0  0  0  0  0  0  0  0  0
    0.7500   -1.2990    0.0000 C   0  0  0  0  0  0  0  0  0  0  0  0
    1.5000    0.0000    0.0000 C   0  0  0  0  0  0  0  0  0  0  0  0
    0.7500    1.2990    0.0000 C   0  0  0  0  0  0  0  0  0  0  0  0
   -0.7500    1.2990    0.0000 C   0  0  0  0  0  0  0  0  0  0  0  0
   -1.5000    0.0000    0.0000 C   0  0  0  0  0  0  0  0  0  0  0  0
   -3.0000    0.0000    0.0000 C   0  0  0  0  0  0  0  0  0  0  0  0
   -3.7500   -1.2990    0.0000 N   0  0  0  0  0  0  0  0  0  0  0  0
   -5.2500   -1.2990    0.0000 C   0  0  0  0  0  0  0  0  0  0  0  0
   -6.0000   -0.0000    0.0000 C   0  0  0  0  0  0  0  0  0  0  0  0
   -7.5000   -0.0000    0.0000 C   0  0  0  0  0  0  0  0  0  0  0  0
   -8.2500   -1.2990    0.0000 N   0  0  0  0  0  0  0  0  0  0  0  0
   -9.7500   -1.2990    0.0000 C   0  0  0  0  0  0  0  0  0  0  0  0
  -10.5000   -2.5981    0.0000 C   0  0  0  0  0  0  0  0  0  0  0  0
  -10.8119   -4.0653    0.0000 C   0  0  0  0  0  0  0  0  0  0  0  0
   -9.5128   -4.8153    0.0000 C   0  0  0  0  0  0  0  0  0  0  0  0
   -8.3981   -3.8116    0.0000 C   0  0  0  0  0  0  0  0  0  0  0  0
   -7.5000   -2.5981    0.0000 C   0  0  0  0  0  0  0  0  0  0  0  0
   -9.0082   -2.4413    0.0000 N   0  0  0  0  0  0  0  0  0  0  0  0
   -8.2500    1.2990    0.0000 N   0  0  0  0  0  0  0  0  0  0  0  0
   -7.5000    2.5981    0.0000 C   0  0  0  0  0  0  0  0  0  0  0  0
   -8.2500    3.8971    0.0000 O   0  0  0  0  0  0  0  0  0  0  0  0
   -7.5000    5.1962    0.0000 C   0  0  0  0  0  0  0  0  0  0  0  0
   -8.2500    6.4952    0.0000 C   0  0  0  0  0  0  0  0  0  0  0  0
   -9.2537    5.3805    0.0000 C   0  0  0  0  0  0  0  0  0  0  0  0
  -10.6240    5.9906    0.0000 C   0  0  0  0  0  0  0  0  0  0  0  0
  -10.4672    7.4824    0.0000 C   0  0  0  0  0  0  0  0  0  0  0  0
   -9.0000    7.7942    0.0000 N   0  0  0  0  0  0  0  0  0  0  0  0
   -7.9963    8.9089    0.0000 C   0  0  0  0  0  0  0  0  0  0  0  0
   -6.6260    8.2988    0.0000 C   0  0  0  0  0  0  0  0  0  0  0  0
   -6.7828    6.8071    0.0000 C   0  0  0  0  0  0  0  0  0  0  0  0
   -6.0000    2.5981    0.0000 N   0  0  0  0  0  0  0  0  0  0  0  0
   -5.2500    1.2990    0.0000 C   0  0  0  0  0  0  0  0  0  0  0  0
   -3.7500    1.2990    0.0000 C   0  0  0  0  0  0  0  0  0  0  0  0
   -3.0000    2.5981    0.0000 F   0  0  0  0  0  0  0  0  0  0  0  0
   -0.7500   -1.2990    0.0000 C   0  0  0  0  0  0  0  0  0  0  0  0
  1  2  3  0
  2  3  1  0
  3  4  2  0
  4  5  1  0
  4  6  1  0
  6  7  2  0
  7  8  1  0
  8  9  2  0
  9 10  1  0
 10 11  2  0
 11 12  1  0
 12 13  1  0
 13 14  2  0
 14 15  1  0
 15 16  2  0
 16 17  1  0
 17 18  1  0
 18 19  1  0
 20 19  1  6
 20 21  1  0
 21 22  1  0
 23 22  1  6
 23 24  1  0
 23 25  1  0
 17 26  2  0
 26 27  1  0
 27 28  1  0
 28 29  1  0
 29 30  1  0
 30 31  1  0
 31 32  1  0
 32 33  1  0
 33 34  1  0
 34 35  1  0
 35 36  1  0
 36 37  1  0
 27 38  2  0
 38 39  1  0
 39 40  2  0
 40 41  1  0
 12 42  2  0
 42  3  1  0
 42  8  1  0
 40 13  1  0
 39 16  1  0
 24 18  1  0
 34 30  1  0
 25 20  1  0
 37 30  1  0
M  END
>  <molecule_chembl_id>  (298) 
CHEMBL5087229

>  <canonical_smiles>  (298) 
C#Cc1c(F)ccc2cccc(-c3ncc4c(N5C[C@H]6CC[C@@H](C5)N6)nc(OCC56CCCN5CCC6)nc4c3F)c12

>  <pchembl_value_mean>  (298) 
7.62

>  <inchi>  (298) 
InChI=1S/C33H32F2N6O/c1-2-23-26(34)11-8-20-6-3-7-24(27(20)23)29-28(35)30-25(16-36-29)31(40-17-21-9-10-22(18-40)37-21)39-32(38-30)42-19-33-12-4-14-41(33)15-5-13-33/h1,3,6-8,11,16,21-22,37H,4-5,9-10,12-15,17-19H2/t21-,22+

$$$$

     RDKit          2D

 41 48  0  0  0  0  0  0  0  0999 V2000
   -1.5000   -5.1962    0.0000 O   0  0  0  0  0  0  0  0  0  0  0  0
   -0.7500   -3.8971    0.0000 C   0  0  0  0  0  0  0  0  0  0  0  0
    0.7500   -3.8971    0.0000 C   0  0  0  0  0  0  0  0  0  0  0  0
    1.5000   -2.5981    0.0000 C   0  0  0  0  0  0  0  0  0  0  0  0
    3.0000   -2.5981    0.0000 C   0  0  0  0  0  0  0  0  0  0  0  0
    3.7500   -1.2990    0.0000 N   0  0  0  0  0  0  0  0  0  0  0  0
    5.2500   -1.2990    0.0000 C   0  0  0  0  0  0  0  0  0  0  0  0
    6.0000   -2.5981    0.0000 C   0  0  0  0  0  0  0  0  0  0  0  0
    7.5000   -2.5981    0.0000 C   0  0  0  0  0  0  0  0  0  0  0  0
    8.2500   -1.2990    0.0000 N   0  0  0  0  0  0  0  0  0  0  0  0
    9.7500   -1.2990    0.0000 C   0  0  0  0  0  0  0  0  0  0  0  0
   10.5000   -0.0000    0.0000 C   0  0  0  0  0  0  0  0  0  0  0  0
   10.8119    1.4672    0.0000 C   0  0  0  0  0  0  0  0  0  0  0  0
    9.5128    2.2172    0.0000 C   0  0  0  0  0  0  0  0  0  0  0  0
    8.3981    1.2135    0.0000 C   0  0  0  0  0  0  0  0  0  0  0  0
    7.5000    0.0000    0.0000 C   0  0  0  0  0  0  0  0  0  0  0  0
    9.0082   -0.1568    0.0000 N   0  0  0  0  0  0  0  0  0  0  0  0
    8.2500   -3.8971    0.0000 N   0  0  0  0  0  0  0  0  0  0  0  0
    7.5000   -5.1962    0.0000 C   0  0  0  0  0  0  0  0  0  0  0  0
    8.2500   -6.4952    0.0000 O   0  0  0  0  0  0  0  0  0  0  0  0
    7.5000   -7.7942    0.0000 C   0  0  0  0  0  0  0  0  0  0  0  0
    8.2500   -9.0933    0.0000 C   0  0  0  0  0  0  0  0  0  0  0  0
    9.2537   -7.9785    0.0000 C   0  0  0  0  0  0  0  0  0  0  0  0
   10.6240   -8.5887    0.0000 C   0  0  0  0  0  0  0  0  0  0  0  0
   10.4672  -10.0804    0.0000 C   0  0  0  0  0  0  0  0  0  0  0  0
    9.0000  -10.3923    0.0000 N   0  0  0  0  0  0  0  0  0  0  0  0
    7.9963  -11.5070    0.0000 C   0  0  0  0  0  0  0  0  0  0  0  0
    6.6260  -10.8969    0.0000 C   0  0  0  0  0  0  0  0  0  0  0  0
    5.3269  -11.6469    0.0000 F   0  0  0  0  0  0  0  0  0  0  0  0
    6.7828   -9.4051    0.0000 C   0  0  0  0  0  0  0  0  0  0  0  0
    6.0000   -5.1962    0.0000 N   0  0  0  0  0  0  0  0  0  0  0  0
    5.2500   -3.8971    0.0000 C   0  0  0  0  0  0  0  0  0  0  0  0
    3.7500   -3.8971    0.0000 C   0  0  0  0  0  0  0  0  0  0  0  0
    3.0000   -5.1962    0.0000 F   0  0  0  0  0  0  0  0  0  0  0  0
    0.7500   -1.2990    0.0000 C   0  0  0  0  0  0  0  0  0  0  0  0
    1.5000    0.0000    0.0000 C   0  0  0  0  0  0  0  0  0  0  0  0
    0.7500    1.2990    0.0000 C   0  0  0  0  0  0  0  0  0  0  0  0
   -0.7500    1.2990    0.0000 C   0  0  0  0  0  0  0  0  0  0  0  0
   -1.5000    0.0000    0.0000 C   0  0  0  0  0  0  0  0  0  0  0  0
   -0.7500   -1.2990    0.0000 C   0  0  0  0  0  0  0  0  0  0  0  0
   -1.5000   -2.5981    0.0000 C   0  0  0  0  0  0  0  0  0  0  0  0
  1  2  1  0
  2  3  2  0
  3  4  1  0
  4  5  1  0
  5  6  2  0
  6  7  1  0
  7  8  2  0
  8  9  1  0
  9 10  1  0
 10 11  1  0
 12 11  1  6
 12 13  1  0
 13 14  1  0
 15 14  1  6
 15 16  1  0
 15 17  1  0
  9 18  2  0
 18 19  1  0
 19 20  1  0
 20 21  1  0
 22 21  1  1
 22 23  1  0
 23 24  1  0
 24 25  1  0
 25 26  1  0
 26 27  1  0
 27 28  1  0
 28 29  1  6
 28 30  1  0
 19 31  2  0
 31 32  1  0
 32 33  2  0
 33 34  1  0
  4 35  2  0
 35 36  1  0
 36 37  2  0
 37 38  1  0
 38 39  2  0
 39 40  1  0
 40 41  2  0
 41  2  1  0
 33  5  1  0
 40 35  1  0
 32  8  1  0
 16 10  1  0
 26 22  1  0
 17 12  1  0
 30 22  1  0
M  END
>  <molecule_chembl_id>  (299) 
CHEMBL5089133

>  <canonical_smiles>  (299) 
Oc1cc(-c2ncc3c(N4C[C@H]5CC[C@@H](C4)N5)nc(OC[C@@]45CCCN4C[C@H](F)C5)nc3c2F)c2ccccc2c1

>  <pchembl_value_mean>  (299) 
7.62

>  <inchi>  (299) 
InChI=1S/C31H32F2N6O2/c32-19-12-31(8-3-9-39(31)14-19)17-41-30-36-28-25(29(37-30)38-15-20-6-7-21(16-38)35-20)13-34-27(26(28)33)24-11-22(40)10-18-4-1-2-5-23(18)24/h1-2,4-5,10-11,13,19-21,35,40H,3,6-9,12,14-17H2/t19-,20-,21+,31+/m1/s1

$$$$

     RDKit          2D

141146  0  0  0  0  0  0  0  0999 V2000
    7.4592   15.3348    0.0000 C   0  0  0  0  0  0  0  0  0  0  0  0
    6.1077   14.6840    0.0000 C   0  0  0  0  0  0  0  0  0  0  0  0
    5.9956   13.1882    0.0000 C   0  0  0  0  0  0  0  0  0  0  0  0
    7.2350   12.3432    0.0000 C   0  0  0  0  0  0  0  0  0  0  0  0
    4.6442   12.5373    0.0000 C   0  0  0  0  0  0  0  0  0  0  0  0
    5.1713   11.1330    0.0000 N   0  0  0  0  0  0  0  0  0  0  0  0
    5.4391    9.6571    0.0000 C   0  0  0  0  0  0  0  0  0  0  0  0
    6.9331    9.7915    0.0000 O   0  0  0  0  0  0  0  0  0  0  0  0
    5.4391    8.1571    0.0000 C   0  0  0  0  0  0  0  0  0  0  0  0
    6.9331    8.0226    0.0000 C   0  0  0  0  0  0  0  0  0  0  0  0
    7.5636    6.6616    0.0000 C   0  0  0  0  0  0  0  0  0  0  0  0
    6.7002    5.4350    0.0000 C   0  0  0  0  0  0  0  0  0  0  0  0
    7.3307    4.0740    0.0000 C   0  0  0  0  0  0  0  0  0  0  0  0
    8.8247    3.9395    0.0000 C   0  0  0  0  0  0  0  0  0  0  0  0
    9.4552    2.5785    0.0000 C   0  0  0  0  0  0  0  0  0  0  0  0
    8.5918    1.3519    0.0000 C   0  0  0  0  0  0  0  0  0  0  0  0
    9.2223   -0.0091    0.0000 C   0  0  0  0  0  0  0  0  0  0  0  0
   10.7163   -0.1436    0.0000 C   0  0  0  0  0  0  0  0  0  0  0  0
   11.5797    1.0830    0.0000 C   0  0  0  0  0  0  0  0  0  0  0  0
   10.9492    2.4440    0.0000 C   0  0  0  0  0  0  0  0  0  0  0  0
    9.6881    5.1661    0.0000 C   0  0  0  0  0  0  0  0  0  0  0  0
    9.0576    6.5271    0.0000 C   0  0  0  0  0  0  0  0  0  0  0  0
    5.1713    6.6812    0.0000 N   0  0  0  0  0  0  0  0  0  0  0  0
    4.6442    5.2768    0.0000 C   0  0  0  0  0  0  0  0  0  0  0  0
    5.9956    4.6260    0.0000 O   0  0  0  0  0  0  0  0  0  0  0  0
    3.8748    3.9892    0.0000 C   0  0  0  0  0  0  0  0  0  0  0  0
    5.0884    3.1075    0.0000 C   0  0  0  0  0  0  0  0  0  0  0  0
    4.9316    1.6157    0.0000 C   0  0  0  0  0  0  0  0  0  0  0  0
    6.1451    0.7340    0.0000 C   0  0  0  0  0  0  0  0  0  0  0  0
    3.5613    1.0056    0.0000 C   0  0  0  0  0  0  0  0  0  0  0  0
    2.8879    2.8596    0.0000 N   0  0  0  0  0  0  0  0  0  0  0  0
    1.7152    1.9243    0.0000 C   0  0  0  0  0  0  0  0  0  0  0  0
    2.5415    0.6725    0.0000 O   0  0  0  0  0  0  0  0  0  0  0  0
    0.3943    1.2135    0.0000 C   0  0  0  0  0  0  0  0  0  0  0  0
    1.2760    0.0000    0.0000 C   0  0  0  0  0  0  0  0  0  0  0  0
    0.3943   -1.2135    0.0000 C   0  0  0  0  0  0  0  0  0  0  0  0
   -1.0323   -0.7500    0.0000 C   0  0  0  0  0  0  0  0  0  0  0  0
   -1.0323    0.7500    0.0000 N   0  0  0  0  0  0  0  0  0  0  0  0
   -2.5187    0.5487    0.0000 C   0  0  0  0  0  0  0  0  0  0  0  0
   -2.4514   -0.9498    0.0000 O   0  0  0  0  0  0  0  0  0  0  0  0
   -4.0172    0.6159    0.0000 C   0  0  0  0  0  0  0  0  0  0  0  0
   -4.2186   -0.8705    0.0000 N   0  0  0  0  0  0  0  0  0  0  0  0
   -5.6065   -1.4393    0.0000 C   0  0  0  0  0  0  0  0  0  0  0  0
   -6.7931   -0.5217    0.0000 O   0  0  0  0  0  0  0  0  0  0  0  0
   -5.8079   -2.9257    0.0000 C   0  0  0  0  0  0  0  0  0  0  0  0
   -7.1958   -3.4946    0.0000 C   0  0  0  0  0  0  0  0  0  0  0  0
   -7.3972   -4.9810    0.0000 C   0  0  0  0  0  0  0  0  0  0  0  0
   -8.7851   -5.5498    0.0000 C   0  0  0  0  0  0  0  0  0  0  0  0
   -8.9865   -7.0363    0.0000 N   0  0  0  0  0  0  0  0  0  0  0  0
  -10.3744   -7.6051    0.0000 C   0  0  0  0  0  0  0  0  0  0  0  0
  -11.5610   -6.6875    0.0000 N   0  0  0  0  0  0  0  0  0  0  0  0
  -10.5758   -9.0915    0.0000 N   0  0  0  0  0  0  0  0  0  0  0  0
   -4.6213   -3.8433    0.0000 N   0  0  0  0  0  0  0  0  0  0  0  0
   -4.8226   -5.3298    0.0000 C   0  0  0  0  0  0  0  0  0  0  0  0
   -6.2106   -5.8986    0.0000 O   0  0  0  0  0  0  0  0  0  0  0  0
   -3.6360   -6.2473    0.0000 C   0  0  0  0  0  0  0  0  0  0  0  0
   -3.8373   -7.7338    0.0000 C   0  0  0  0  0  0  0  0  0  0  0  0
   -2.6507   -8.6513    0.0000 C   0  0  0  0  0  0  0  0  0  0  0  0
   -2.8521  -10.1378    0.0000 C   0  0  0  0  0  0  0  0  0  0  0  0
   -1.6655  -11.0554    0.0000 N   0  0  0  0  0  0  0  0  0  0  0  0
   -1.8668  -12.5418    0.0000 C   0  0  0  0  0  0  0  0  0  0  0  0
   -3.2548  -13.1106    0.0000 N   0  0  0  0  0  0  0  0  0  0  0  0
   -0.6802  -13.4594    0.0000 N   0  0  0  0  0  0  0  0  0  0  0  0
   -2.2480   -5.6785    0.0000 N   0  0  0  0  0  0  0  0  0  0  0  0
   -1.0614   -6.5961    0.0000 C   0  0  0  0  0  0  0  0  0  0  0  0
    0.3265   -6.0272    0.0000 C   0  0  0  0  0  0  0  0  0  0  0  0
   -1.2628   -8.0825    0.0000 O   0  0  0  0  0  0  0  0  0  0  0  0
   -5.4796    0.9497    0.0000 C   0  0  0  0  0  0  0  0  0  0  0  0
   -6.8589    1.5393    0.0000 S   0  0  0  0  0  0  0  0  0  0  0  0
   -8.1107    2.3656    0.0000 S   0  0  0  0  0  0  0  0  0  0  0  0
   -9.1949    3.4022    0.0000 C   0  0  0  0  0  0  0  0  0  0  0  0
  -10.0766    4.6157    0.0000 C   0  0  0  0  0  0  0  0  0  0  0  0
  -11.3643    3.8464    0.0000 C   0  0  0  0  0  0  0  0  0  0  0  0
  -11.3418    2.3466    0.0000 O   0  0  0  0  0  0  0  0  0  0  0  0
  -12.6744    4.5769    0.0000 N   0  0  0  0  0  0  0  0  0  0  0  0
  -13.9621    3.8075    0.0000 C   0  0  0  0  0  0  0  0  0  0  0  0
  -15.2722    4.5380    0.0000 C   0  0  0  0  0  0  0  0  0  0  0  0
  -16.5599    3.7687    0.0000 C   0  0  0  0  0  0  0  0  0  0  0  0
  -17.8700    4.4991    0.0000 C   0  0  0  0  0  0  0  0  0  0  0  0
  -19.1576    3.7298    0.0000 N   0  0  0  0  0  0  0  0  0  0  0  0
  -20.4678    4.4603    0.0000 C   0  0  0  0  0  0  0  0  0  0  0  0
  -20.4902    5.9601    0.0000 N   0  0  0  0  0  0  0  0  0  0  0  0
  -21.7554    3.6909    0.0000 N   0  0  0  0  0  0  0  0  0  0  0  0
  -13.9396    2.3077    0.0000 C   0  0  0  0  0  0  0  0  0  0  0  0
  -12.6295    1.5772    0.0000 O   0  0  0  0  0  0  0  0  0  0  0  0
  -15.2273    1.5383    0.0000 N   0  0  0  0  0  0  0  0  0  0  0  0
  -15.2049    0.0385    0.0000 C   0  0  0  0  0  0  0  0  0  0  0  0
  -16.4925   -0.7308    0.0000 C   0  0  0  0  0  0  0  0  0  0  0  0
  -16.4701   -2.2307    0.0000 C   0  0  0  0  0  0  0  0  0  0  0  0
  -17.7578   -3.0000    0.0000 C   0  0  0  0  0  0  0  0  0  0  0  0
  -17.7353   -4.4999    0.0000 N   0  0  0  0  0  0  0  0  0  0  0  0
  -19.0230   -5.2692    0.0000 C   0  0  0  0  0  0  0  0  0  0  0  0
  -20.3331   -4.5387    0.0000 N   0  0  0  0  0  0  0  0  0  0  0  0
  -19.0006   -6.7690    0.0000 N   0  0  0  0  0  0  0  0  0  0  0  0
  -13.8948   -0.6920    0.0000 C   0  0  0  0  0  0  0  0  0  0  0  0
  -13.8723   -2.1918    0.0000 N   0  0  0  0  0  0  0  0  0  0  0  0
  -12.6071    0.0774    0.0000 O   0  0  0  0  0  0  0  0  0  0  0  0
  -10.7274    5.9672    0.0000 N   0  0  0  0  0  0  0  0  0  0  0  0
  -11.1265    7.4131    0.0000 C   0  0  0  0  0  0  0  0  0  0  0  0
  -12.6024    7.1453    0.0000 O   0  0  0  0  0  0  0  0  0  0  0  0
  -11.2610    8.9071    0.0000 C   0  0  0  0  0  0  0  0  0  0  0  0
  -12.7610    8.9071    0.0000 C   0  0  0  0  0  0  0  0  0  0  0  0
  -13.5110   10.2061    0.0000 C   0  0  0  0  0  0  0  0  0  0  0  0
  -15.0110   10.2061    0.0000 C   0  0  0  0  0  0  0  0  0  0  0  0
  -16.5110   10.2061    0.0000 N   0  0  0  0  0  0  0  0  0  0  0  0
  -11.1265   10.4011    0.0000 N   0  0  0  0  0  0  0  0  0  0  0  0
  -10.7274   11.8470    0.0000 C   0  0  0  0  0  0  0  0  0  0  0  0
  -12.1318   12.3741    0.0000 O   0  0  0  0  0  0  0  0  0  0  0  0
  -10.0766   13.1984    0.0000 C   0  0  0  0  0  0  0  0  0  0  0  0
  -11.5032   13.6620    0.0000 C   0  0  0  0  0  0  0  0  0  0  0  0
  -11.5032   15.1620    0.0000 C   0  0  0  0  0  0  0  0  0  0  0  0
  -10.0766   15.6255    0.0000 C   0  0  0  0  0  0  0  0  0  0  0  0
   -9.1949   14.4120    0.0000 N   0  0  0  0  0  0  0  0  0  0  0  0
   -8.1107   15.4486    0.0000 C   0  0  0  0  0  0  0  0  0  0  0  0
   -9.0460   16.6213    0.0000 O   0  0  0  0  0  0  0  0  0  0  0  0
   -6.8589   16.2749    0.0000 C   0  0  0  0  0  0  0  0  0  0  0  0
   -7.5697   17.5958    0.0000 C   0  0  0  0  0  0  0  0  0  0  0  0
   -6.7812   18.8718    0.0000 C   0  0  0  0  0  0  0  0  0  0  0  0
   -5.2818   18.8270    0.0000 O   0  0  0  0  0  0  0  0  0  0  0  0
   -7.4920   20.1927    0.0000 O   0  0  0  0  0  0  0  0  0  0  0  0
   -5.4796   16.8645    0.0000 N   0  0  0  0  0  0  0  0  0  0  0  0
   -4.0172   17.1982    0.0000 C   0  0  0  0  0  0  0  0  0  0  0  0
   -4.2186   18.6847    0.0000 O   0  0  0  0  0  0  0  0  0  0  0  0
   -2.5187   17.2655    0.0000 C   0  0  0  0  0  0  0  0  0  0  0  0
   -2.4514   18.7640    0.0000 C   0  0  0  0  0  0  0  0  0  0  0  0
   -1.1200   19.4550    0.0000 C   0  0  0  0  0  0  0  0  0  0  0  0
    0.1440   18.6475    0.0000 C   0  0  0  0  0  0  0  0  0  0  0  0
    1.4754   19.3384    0.0000 C   0  0  0  0  0  0  0  0  0  0  0  0
    1.5427   20.8369    0.0000 C   0  0  0  0  0  0  0  0  0  0  0  0
    2.8741   21.5279    0.0000 O   0  0  0  0  0  0  0  0  0  0  0  0
    0.2786   21.6444    0.0000 C   0  0  0  0  0  0  0  0  0  0  0  0
   -1.0527   20.9535    0.0000 C   0  0  0  0  0  0  0  0  0  0  0  0
   -1.0323   17.0642    0.0000 N   0  0  0  0  0  0  0  0  0  0  0  0
    0.3943   16.6007    0.0000 C   0  0  0  0  0  0  0  0  0  0  0  0
    0.9838   17.9799    0.0000 O   0  0  0  0  0  0  0  0  0  0  0  0
    1.7152   15.8899    0.0000 C   0  0  0  0  0  0  0  0  0  0  0  0
    2.5415   17.1417    0.0000 C   0  0  0  0  0  0  0  0  0  0  0  0
    4.0389   17.0520    0.0000 O   0  0  0  0  0  0  0  0  0  0  0  0
    2.8879   14.9546    0.0000 N   0  0  0  0  0  0  0  0  0  0  0  0
    3.8748   13.8250    0.0000 C   0  0  0  0  0  0  0  0  0  0  0  0
    5.0884   14.7067    0.0000 O   0  0  0  0  0  0  0  0  0  0  0  0
  1  2  1  0
  2  3  1  0
  3  4  1  6
  3  5  1  0
  5  6  1  6
  6  7  1  0
  7  8  2  0
  7  9  1  0
  9 10  1  6
 10 11  1  0
 11 12  2  0
 12 13  1  0
 13 14  2  0
 14 15  1  0
 15 16  2  0
 16 17  1  0
 17 18  2  0
 18 19  1  0
 19 20  2  0
 14 21  1  0
 21 22  2  0
  9 23  1  0
 23 24  1  0
 24 25  2  0
 24 26  1  0
 26 27  1  6
 27 28  1  0
 28 29  1  0
 28 30  1  0
 26 31  1  0
 31 32  1  0
 32 33  2  0
 32 34  1  0
 34 35  1  6
 35 36  1  0
 36 37  1  0
 37 38  1  0
 38 39  1  0
 39 40  2  0
 39 41  1  0
 41 42  1  1
 42 43  1  0
 43 44  2  0
 43 45  1  0
 45 46  1  1
 46 47  1  0
 47 48  1  0
 48 49  1  0
 49 50  1  0
 50 51  2  0
 50 52  1  0
 45 53  1  0
 53 54  1  0
 54 55  2  0
 54 56  1  0
 56 57  1  1
 57 58  1  0
 58 59  1  0
 59 60  1  0
 60 61  1  0
 61 62  2  0
 61 63  1  0
 56 64  1  0
 64 65  1  0
 65 66  1  0
 65 67  2  0
 41 68  1  0
 68 69  1  0
 69 70  1  0
 70 71  1  0
 71 72  1  0
 72 73  1  1
 73 74  2  0
 73 75  1  0
 75 76  1  0
 76 77  1  6
 77 78  1  0
 78 79  1  0
 79 80  1  0
 80 81  1  0
 81 82  2  0
 81 83  1  0
 76 84  1  0
 84 85  2  0
 84 86  1  0
 86 87  1  0
 87 88  1  6
 88 89  1  0
 89 90  1  0
 90 91  1  0
 91 92  1  0
 92 93  2  0
 92 94  1  0
 87 95  1  0
 95 96  1  0
 95 97  2  0
 72 98  1  0
 98 99  1  0
 99100  2  0
 99101  1  0
101102  1  6
102103  1  0
103104  1  0
104105  3  0
101106  1  0
106107  1  0
107108  2  0
107109  1  0
109110  1  6
110111  1  0
111112  1  0
112113  1  0
113114  1  0
114115  2  0
114116  1  0
116117  1  6
117118  1  0
118119  2  0
118120  1  0
116121  1  0
121122  1  0
122123  2  0
122124  1  0
124125  1  6
125126  1  0
126127  2  0
127128  1  0
128129  2  0
129130  1  0
129131  1  0
131132  2  0
124133  1  0
133134  1  0
134135  2  0
134136  1  0
136137  1  6
137138  1  0
136139  1  0
139140  1  0
140141  2  0
140  5  1  0
 22 11  1  0
 38 34  1  0
113109  1  0
132126  1  0
 20 15  1  0
M  END
>  <molecule_chembl_id>  (300) 
CHEMBL5170078

>  <canonical_smiles>  (300) 
CC[C@H](C)[C@@H]1NC(=O)[C@H](Cc2ccc(-c3ccccc3)cc2)NC(=O)[C@H](CC(C)C)NC(=O)[C@@H]2CCCN2C(=O)[C@@H](NC(=O)[C@H](CCCNC(=N)N)NC(=O)[C@H](CCCNC(=N)N)NC(C)=O)CSSC[C@@H](C(=O)N[C@@H](CCCNC(=N)N)C(=O)N[C@@H](CCCNC(=N)N)C(N)=O)NC(=O)[C@H](CCC#N)NC(=O)[C@@H]2CCCN2C(=O)[C@H](CC(=O)O)NC(=O)[C@H](Cc2ccc(O)cc2)NC(=O)[C@H](CO)NC1=O

>  <pchembl_value_mean>  (300) 
7.62

>  <inchi>  (300) 
InChI=1S/C90H135N29O20S2/c1-6-49(4)71-84(137)114-65(45-120)80(133)111-62(43-52-28-32-55(122)33-29-52)78(131)113-64(44-70(123)124)85(138)118-39-15-24-68(118)82(135)109-58(19-10-34-91)75(128)115-66(81(134)108-59(22-13-37-103-89(97)98)74(127)106-56(72(92)125)20-11-35-101-87(93)94)46-140-141-47-67(116-76(129)60(23-14-38-104-90(99)100)107-73(126)57(105-50(5)121)21-12-36-102-88(95)96)86(139)119-40-16-25-69(119)83(136)112-61(41-48(2)3)77(130)110-63(79(132)117-71)42-51-26-30-54(31-27-51)53-17-8-7-9-18-53/h7-9,17-18,26-33,48-49,56-69,71,120,122H,6,10-16,19-25,35-47H2,1-5H3,(H2,92,125)(H,105,121)(H,106,127)(H,107,126)(H,108,134)(H,109,135)(H,110,130)(H,111,133)(H,112,136)(H,113,131)(H,114,137)(H,115,128)(H,116,129)(H,117,132)(H,123,124)(H4,93,94,101)(H4,95,96,102)(H4,97,98,103)(H4,99,100,104)/t49-,56-,57-,58-,59-,60-,61-,62-,63-,64-,65-,66-,67-,68-,69-,71-/m0/s1

$$$$

     RDKit          2D

 32 36  0  0  0  0  0  0  0  0999 V2000
    5.2500   -1.2990    0.0000 C   0  0  0  0  0  0  0  0  0  0  0  0
    3.7500   -1.2990    0.0000 C   0  0  0  0  0  0  0  0  0  0  0  0
    3.0000    0.0000    0.0000 C   0  0  0  0  0  0  0  0  0  0  0  0
    3.7500    1.2990    0.0000 O   0  0  0  0  0  0  0  0  0  0  0  0
    1.5000    0.0000    0.0000 N   0  0  0  0  0  0  0  0  0  0  0  0
    0.7500   -1.2990    0.0000 C   0  0  0  0  0  0  0  0  0  0  0  0
   -0.7500   -1.2990    0.0000 C   0  0  0  0  0  0  0  0  0  0  0  0
   -1.5000    0.0000    0.0000 N   0  0  0  0  0  0  0  0  0  0  0  0
   -2.9832   -0.2236    0.0000 C   0  0  0  0  0  0  0  0  0  0  0  0
   -3.3170   -1.6860    0.0000 N   0  0  0  0  0  0  0  0  0  0  0  0
   -4.7504   -2.1281    0.0000 C   0  0  0  0  0  0  0  0  0  0  0  0
   -5.8500   -1.1078    0.0000 N   0  0  0  0  0  0  0  0  0  0  0  0
   -5.5162    0.3546    0.0000 C   0  0  0  0  0  0  0  0  0  0  0  0
   -6.7634    1.1965    0.0000 C   0  0  0  0  0  0  0  0  0  0  0  0
   -8.1597    0.6485    0.0000 F   0  0  0  0  0  0  0  0  0  0  0  0
   -6.5398    2.6797    0.0000 C   0  0  0  0  0  0  0  0  0  0  0  0
   -7.7125    3.6150    0.0000 C   0  0  0  0  0  0  0  0  0  0  0  0
   -7.4890    5.0982    0.0000 C   0  0  0  0  0  0  0  0  0  0  0  0
   -6.0927    5.6462    0.0000 O   0  0  0  0  0  0  0  0  0  0  0  0
   -8.6617    6.0334    0.0000 C   0  0  0  0  0  0  0  0  0  0  0  0
  -10.0580    5.4854    0.0000 C   0  0  0  0  0  0  0  0  0  0  0  0
  -10.2816    4.0022    0.0000 C   0  0  0  0  0  0  0  0  0  0  0  0
   -9.1088    3.0669    0.0000 C   0  0  0  0  0  0  0  0  0  0  0  0
   -9.3324    1.5837    0.0000 F   0  0  0  0  0  0  0  0  0  0  0  0
   -5.1435    3.2277    0.0000 C   0  0  0  0  0  0  0  0  0  0  0  0
   -4.9199    4.7110    0.0000 Cl  0  0  0  0  0  0  0  0  0  0  0  0
   -3.9707    2.2925    0.0000 C   0  0  0  0  0  0  0  0  0  0  0  0
   -4.0828    0.7967    0.0000 C   0  0  0  0  0  0  0  0  0  0  0  0
   -2.7314    3.1375    0.0000 O   0  0  0  0  0  0  0  0  0  0  0  0
   -1.2980    2.6953    0.0000 C   0  0  0  0  0  0  0  0  0  0  0  0
   -0.7500    1.2990    0.0000 C   0  0  0  0  0  0  0  0  0  0  0  0
    0.7500    1.2990    0.0000 C   0  0  0  0  0  0  0  0  0  0  0  0
  1  2  2  0
  2  3  1  0
  3  4  2  0
  3  5  1  0
  5  6  1  0
  6  7  1  0
  7  8  1  0
  8  9  1  0
  9 10  1  0
 10 11  2  0
 11 12  1  0
 12 13  2  0
 13 14  1  0
 14 15  1  0
 14 16  2  0
 16 17  1  0
 17 18  2  0
 18 19  1  0
 18 20  1  0
 20 21  2  0
 21 22  1  0
 22 23  2  0
 23 24  1  0
 16 25  1  0
 25 26  1  0
 25 27  2  0
 27 28  1  0
 27 29  1  0
 29 30  1  0
 31 30  1  6
 31 32  1  0
 32  5  1  0
 31  8  1  0
 28  9  2  0
 28 13  1  0
 23 17  1  0
M  END
>  <molecule_chembl_id>  (301) 
CHEMBL4452819

>  <canonical_smiles>  (301) 
C=CC(=O)N1CCN2c3ncnc4c(F)c(-c5c(O)cccc5F)c(Cl)c(c34)OC[C@@H]2C1

>  <pchembl_value_mean>  (301) 
7.63

>  <inchi>  (301) 
InChI=1S/C22H17ClF2N4O3/c1-2-14(31)28-6-7-29-11(8-28)9-32-21-17-20(26-10-27-22(17)29)19(25)16(18(21)23)15-12(24)4-3-5-13(15)30/h2-5,10-11,30H,1,6-9H2/t11-/m0/s1

$$$$

     RDKit          2D

 43 47  0  0  0  0  0  0  0  0999 V2000
   -9.7500   -1.2990    0.0000 C   0  0  0  0  0  0  0  0  0  0  0  0
   -8.2500   -1.2990    0.0000 C   0  0  0  0  0  0  0  0  0  0  0  0
   -7.5000   -2.5981    0.0000 C   0  0  0  0  0  0  0  0  0  0  0  0
   -8.2500   -3.8971    0.0000 O   0  0  0  0  0  0  0  0  0  0  0  0
   -6.0000   -2.5981    0.0000 N   0  0  0  0  0  0  0  0  0  0  0  0
   -5.2500   -1.2990    0.0000 C   0  0  0  0  0  0  0  0  0  0  0  0
   -3.7500   -1.2990    0.0000 C   0  0  0  0  0  0  0  0  0  0  0  0
   -3.0000   -2.5981    0.0000 N   0  0  0  0  0  0  0  0  0  0  0  0
   -1.5000   -2.5981    0.0000 C   0  0  0  0  0  0  0  0  0  0  0  0
   -0.7500   -3.8971    0.0000 N   0  0  0  0  0  0  0  0  0  0  0  0
    0.7500   -3.8971    0.0000 C   0  0  0  0  0  0  0  0  0  0  0  0
    1.1772   -4.9037    0.0000 O   0  0  0  0  0  0  0  0  0  0  0  0
    1.5000   -2.5981    0.0000 N   0  0  0  0  0  0  0  0  0  0  0  0
    3.0000   -2.5981    0.0000 C   0  0  0  0  0  0  0  0  0  0  0  0
    3.7500   -3.8971    0.0000 C   0  0  0  0  0  0  0  0  0  0  0  0
    3.0000   -5.1962    0.0000 C   0  0  0  0  0  0  0  0  0  0  0  0
    3.7500   -6.4952    0.0000 C   0  0  0  0  0  0  0  0  0  0  0  0
    1.9147   -5.3294    0.0000 C   0  0  0  0  0  0  0  0  0  0  0  0
    5.2500   -3.8971    0.0000 N   0  0  0  0  0  0  0  0  0  0  0  0
    6.0000   -2.5981    0.0000 C   0  0  0  0  0  0  0  0  0  0  0  0
    5.2500   -1.2990    0.0000 N   0  0  0  0  0  0  0  0  0  0  0  0
    3.7500   -1.2990    0.0000 C   0  0  0  0  0  0  0  0  0  0  0  0
    3.0000   -0.0000    0.0000 C   0  0  0  0  0  0  0  0  0  0  0  0
    3.9028    1.1979    0.0000 C   0  0  0  0  0  0  0  0  0  0  0  0
    2.2265    0.1929    0.0000 C   0  0  0  0  0  0  0  0  0  0  0  0
    0.7500   -1.2990    0.0000 C   0  0  0  0  0  0  0  0  0  0  0  0
    1.5000    0.0000    0.0000 N   0  0  0  0  0  0  0  0  0  0  0  0
    0.7500    1.2990    0.0000 C   0  0  0  0  0  0  0  0  0  0  0  0
    1.5000    2.5981    0.0000 C   0  0  0  0  0  0  0  0  0  0  0  0
    3.0000    2.5981    0.0000 C   0  0  0  0  0  0  0  0  0  0  0  0
    3.9028    1.4001    0.0000 O   0  0  0  0  0  0  0  0  0  0  0  0
    3.7500    3.8971    0.0000 C   0  0  0  0  0  0  0  0  0  0  0  0
    3.0000    5.1962    0.0000 C   0  0  0  0  0  0  0  0  0  0  0  0
    1.5000    5.1962    0.0000 C   0  0  0  0  0  0  0  0  0  0  0  0
    0.7500    3.8971    0.0000 C   0  0  0  0  0  0  0  0  0  0  0  0
   -0.7500    3.8971    0.0000 F   0  0  0  0  0  0  0  0  0  0  0  0
   -0.7500    1.2990    0.0000 C   0  0  0  0  0  0  0  0  0  0  0  0
   -1.5000    2.5981    0.0000 Cl  0  0  0  0  0  0  0  0  0  0  0  0
   -1.5000    0.0000    0.0000 C   0  0  0  0  0  0  0  0  0  0  0  0
   -0.7500   -1.2990    0.0000 C   0  0  0  0  0  0  0  0  0  0  0  0
   -3.7500   -3.8971    0.0000 C   0  0  0  0  0  0  0  0  0  0  0  0
   -3.0000   -5.1962    0.0000 C   0  0  0  0  0  0  0  0  0  0  0  0
   -5.2500   -3.8971    0.0000 C   0  0  0  0  0  0  0  0  0  0  0  0
  1  2  2  0
  2  3  1  0
  3  4  2  0
  3  5  1  0
  5  6  1  0
  6  7  1  0
  7  8  1  0
  8  9  1  0
  9 10  2  0
 10 11  1  0
 11 12  2  0
 11 13  1  0
 13 14  1  0
 14 15  2  0
 15 16  1  0
 16 17  1  0
 16 18  1  0
 15 19  1  0
 19 20  2  0
 20 21  1  0
 21 22  2  0
 22 23  1  0
 23 24  1  0
 23 25  1  0
 13 26  1  0
 26 27  2  0
 27 28  1  0
 28 29  1  0
 29 30  2  0
 30 31  1  0
 30 32  1  0
 32 33  2  0
 33 34  1  0
 34 35  2  0
 35 36  1  0
 28 37  2  0
 37 38  1  0
 37 39  1  0
 39 40  2  0
  8 41  1  0
 41 42  1  1
 41 43  1  0
 43  5  1  0
 40  9  1  0
 22 14  1  0
 40 26  1  0
 35 29  1  0
M  END
>  <molecule_chembl_id>  (302) 
CHEMBL4434842

>  <canonical_smiles>  (302) 
C=CC(=O)N1CCN(c2nc(=O)n(-c3c(C(C)C)ncnc3C(C)C)c3nc(-c4c(O)cccc4F)c(Cl)cc23)[C@@H](C)C1

>  <pchembl_value_mean>  (302) 
7.64

>  <inchi>  (302) 
InChI=1S/C31H33ClFN7O3/c1-7-23(42)38-11-12-39(18(6)14-38)29-19-13-20(32)27(24-21(33)9-8-10-22(24)41)36-30(19)40(31(43)37-29)28-25(16(2)3)34-15-35-26(28)17(4)5/h7-10,13,15-18,41H,1,11-12,14H2,2-6H3/t18-/m0/s1

$$$$

     RDKit          2D

147152  0  0  0  0  0  0  0  0999 V2000
  -17.2610   11.5052    0.0000 C   0  0  0  0  0  0  0  0  0  0  0  0
  -15.7610   11.5052    0.0000 C   0  0  0  0  0  0  0  0  0  0  0  0
  -15.0110   10.2061    0.0000 C   0  0  0  0  0  0  0  0  0  0  0  0
  -13.5110   10.2061    0.0000 C   0  0  0  0  0  0  0  0  0  0  0  0
  -12.7610    8.9071    0.0000 C   0  0  0  0  0  0  0  0  0  0  0  0
  -11.2610    8.9071    0.0000 C   0  0  0  0  0  0  0  0  0  0  0  0
  -11.1265   10.4011    0.0000 N   0  0  0  0  0  0  0  0  0  0  0  0
  -10.7274   11.8470    0.0000 C   0  0  0  0  0  0  0  0  0  0  0  0
  -12.1318   12.3741    0.0000 O   0  0  0  0  0  0  0  0  0  0  0  0
  -10.0766   13.1984    0.0000 C   0  0  0  0  0  0  0  0  0  0  0  0
  -11.5032   13.6620    0.0000 C   0  0  0  0  0  0  0  0  0  0  0  0
  -11.5032   15.1620    0.0000 C   0  0  0  0  0  0  0  0  0  0  0  0
  -12.7167   16.0437    0.0000 O   0  0  0  0  0  0  0  0  0  0  0  0
  -12.5599   17.5354    0.0000 C   0  0  0  0  0  0  0  0  0  0  0  0
  -13.7735   18.4171    0.0000 C   0  0  0  0  0  0  0  0  0  0  0  0
  -15.1438   17.8070    0.0000 O   0  0  0  0  0  0  0  0  0  0  0  0
  -13.6167   19.9089    0.0000 O   0  0  0  0  0  0  0  0  0  0  0  0
  -10.0766   15.6255    0.0000 C   0  0  0  0  0  0  0  0  0  0  0  0
   -9.1949   14.4120    0.0000 N   0  0  0  0  0  0  0  0  0  0  0  0
   -8.1107   15.4486    0.0000 C   0  0  0  0  0  0  0  0  0  0  0  0
   -9.0460   16.6213    0.0000 O   0  0  0  0  0  0  0  0  0  0  0  0
   -6.8589   16.2749    0.0000 C   0  0  0  0  0  0  0  0  0  0  0  0
   -7.5697   17.5958    0.0000 C   0  0  0  0  0  0  0  0  0  0  0  0
   -6.7812   18.8718    0.0000 C   0  0  0  0  0  0  0  0  0  0  0  0
   -5.2818   18.8270    0.0000 O   0  0  0  0  0  0  0  0  0  0  0  0
   -7.4920   20.1927    0.0000 O   0  0  0  0  0  0  0  0  0  0  0  0
   -5.4796   16.8645    0.0000 N   0  0  0  0  0  0  0  0  0  0  0  0
   -4.0172   17.1982    0.0000 C   0  0  0  0  0  0  0  0  0  0  0  0
   -4.2186   18.6847    0.0000 O   0  0  0  0  0  0  0  0  0  0  0  0
   -2.5187   17.2655    0.0000 C   0  0  0  0  0  0  0  0  0  0  0  0
   -2.4514   18.7640    0.0000 C   0  0  0  0  0  0  0  0  0  0  0  0
   -1.1200   19.4550    0.0000 C   0  0  0  0  0  0  0  0  0  0  0  0
    0.1440   18.6475    0.0000 C   0  0  0  0  0  0  0  0  0  0  0  0
    1.4754   19.3384    0.0000 C   0  0  0  0  0  0  0  0  0  0  0  0
    1.5427   20.8369    0.0000 C   0  0  0  0  0  0  0  0  0  0  0  0
    2.8741   21.5279    0.0000 O   0  0  0  0  0  0  0  0  0  0  0  0
    0.2786   21.6444    0.0000 C   0  0  0  0  0  0  0  0  0  0  0  0
   -1.0527   20.9535    0.0000 C   0  0  0  0  0  0  0  0  0  0  0  0
   -1.0323   17.0642    0.0000 N   0  0  0  0  0  0  0  0  0  0  0  0
    0.3943   16.6007    0.0000 C   0  0  0  0  0  0  0  0  0  0  0  0
    0.9838   17.9799    0.0000 O   0  0  0  0  0  0  0  0  0  0  0  0
    1.7152   15.8899    0.0000 C   0  0  0  0  0  0  0  0  0  0  0  0
    2.5415   17.1417    0.0000 C   0  0  0  0  0  0  0  0  0  0  0  0
    4.0389   17.0520    0.0000 O   0  0  0  0  0  0  0  0  0  0  0  0
    2.8879   14.9546    0.0000 N   0  0  0  0  0  0  0  0  0  0  0  0
    3.8748   13.8250    0.0000 C   0  0  0  0  0  0  0  0  0  0  0  0
    5.0884   14.7067    0.0000 O   0  0  0  0  0  0  0  0  0  0  0  0
    4.6442   12.5373    0.0000 C   0  0  0  0  0  0  0  0  0  0  0  0
    5.9956   13.1882    0.0000 C   0  0  0  0  0  0  0  0  0  0  0  0
    7.2350   12.3432    0.0000 C   0  0  0  0  0  0  0  0  0  0  0  0
    6.1077   14.6840    0.0000 C   0  0  0  0  0  0  0  0  0  0  0  0
    7.4592   15.3348    0.0000 C   0  0  0  0  0  0  0  0  0  0  0  0
    5.1713   11.1330    0.0000 N   0  0  0  0  0  0  0  0  0  0  0  0
    5.4391    9.6571    0.0000 C   0  0  0  0  0  0  0  0  0  0  0  0
    6.9331    9.7915    0.0000 O   0  0  0  0  0  0  0  0  0  0  0  0
    5.4391    8.1571    0.0000 C   0  0  0  0  0  0  0  0  0  0  0  0
    6.9331    8.0226    0.0000 C   0  0  0  0  0  0  0  0  0  0  0  0
    7.5636    6.6616    0.0000 C   0  0  0  0  0  0  0  0  0  0  0  0
    6.7002    5.4350    0.0000 C   0  0  0  0  0  0  0  0  0  0  0  0
    7.3307    4.0740    0.0000 C   0  0  0  0  0  0  0  0  0  0  0  0
    8.8247    3.9395    0.0000 C   0  0  0  0  0  0  0  0  0  0  0  0
    9.4552    2.5785    0.0000 C   0  0  0  0  0  0  0  0  0  0  0  0
    8.5918    1.3519    0.0000 C   0  0  0  0  0  0  0  0  0  0  0  0
    9.2223   -0.0091    0.0000 C   0  0  0  0  0  0  0  0  0  0  0  0
   10.7163   -0.1436    0.0000 C   0  0  0  0  0  0  0  0  0  0  0  0
   11.5797    1.0830    0.0000 C   0  0  0  0  0  0  0  0  0  0  0  0
   10.9492    2.4440    0.0000 C   0  0  0  0  0  0  0  0  0  0  0  0
    9.6881    5.1661    0.0000 C   0  0  0  0  0  0  0  0  0  0  0  0
    9.0576    6.5271    0.0000 C   0  0  0  0  0  0  0  0  0  0  0  0
    5.1713    6.6812    0.0000 N   0  0  0  0  0  0  0  0  0  0  0  0
    4.6442    5.2768    0.0000 C   0  0  0  0  0  0  0  0  0  0  0  0
    5.9956    4.6260    0.0000 O   0  0  0  0  0  0  0  0  0  0  0  0
    3.8748    3.9892    0.0000 C   0  0  0  0  0  0  0  0  0  0  0  0
    5.0884    3.1075    0.0000 C   0  0  0  0  0  0  0  0  0  0  0  0
    4.9316    1.6157    0.0000 C   0  0  0  0  0  0  0  0  0  0  0  0
    6.1451    0.7340    0.0000 C   0  0  0  0  0  0  0  0  0  0  0  0
    3.5613    1.0056    0.0000 C   0  0  0  0  0  0  0  0  0  0  0  0
    2.8879    2.8596    0.0000 N   0  0  0  0  0  0  0  0  0  0  0  0
    1.7152    1.9243    0.0000 C   0  0  0  0  0  0  0  0  0  0  0  0
    2.5415    0.6725    0.0000 O   0  0  0  0  0  0  0  0  0  0  0  0
    0.3943    1.2135    0.0000 C   0  0  0  0  0  0  0  0  0  0  0  0
    1.2760    0.0000    0.0000 C   0  0  0  0  0  0  0  0  0  0  0  0
    0.3943   -1.2135    0.0000 C   0  0  0  0  0  0  0  0  0  0  0  0
   -1.0323   -0.7500    0.0000 C   0  0  0  0  0  0  0  0  0  0  0  0
   -1.0323    0.7500    0.0000 N   0  0  0  0  0  0  0  0  0  0  0  0
   -2.5187    0.5487    0.0000 C   0  0  0  0  0  0  0  0  0  0  0  0
   -2.4514   -0.9498    0.0000 O   0  0  0  0  0  0  0  0  0  0  0  0
   -4.0172    0.6159    0.0000 C   0  0  0  0  0  0  0  0  0  0  0  0
   -4.2186   -0.8705    0.0000 N   0  0  0  0  0  0  0  0  0  0  0  0
   -5.6065   -1.4393    0.0000 C   0  0  0  0  0  0  0  0  0  0  0  0
   -6.7931   -0.5217    0.0000 O   0  0  0  0  0  0  0  0  0  0  0  0
   -5.8079   -2.9257    0.0000 C   0  0  0  0  0  0  0  0  0  0  0  0
   -7.1958   -3.4946    0.0000 C   0  0  0  0  0  0  0  0  0  0  0  0
   -7.3972   -4.9810    0.0000 C   0  0  0  0  0  0  0  0  0  0  0  0
   -8.7851   -5.5498    0.0000 C   0  0  0  0  0  0  0  0  0  0  0  0
   -8.9865   -7.0363    0.0000 N   0  0  0  0  0  0  0  0  0  0  0  0
  -10.3744   -7.6051    0.0000 C   0  0  0  0  0  0  0  0  0  0  0  0
  -11.5610   -6.6875    0.0000 N   0  0  0  0  0  0  0  0  0  0  0  0
  -10.5758   -9.0915    0.0000 N   0  0  0  0  0  0  0  0  0  0  0  0
   -4.6213   -3.8433    0.0000 N   0  0  0  0  0  0  0  0  0  0  0  0
   -4.8226   -5.3298    0.0000 C   0  0  0  0  0  0  0  0  0  0  0  0
   -6.2106   -5.8986    0.0000 O   0  0  0  0  0  0  0  0  0  0  0  0
   -3.6360   -6.2473    0.0000 C   0  0  0  0  0  0  0  0  0  0  0  0
   -3.8373   -7.7338    0.0000 C   0  0  0  0  0  0  0  0  0  0  0  0
   -2.6507   -8.6513    0.0000 C   0  0  0  0  0  0  0  0  0  0  0  0
   -2.8521  -10.1378    0.0000 C   0  0  0  0  0  0  0  0  0  0  0  0
   -1.6655  -11.0554    0.0000 N   0  0  0  0  0  0  0  0  0  0  0  0
   -1.8668  -12.5418    0.0000 C   0  0  0  0  0  0  0  0  0  0  0  0
   -3.2548  -13.1106    0.0000 N   0  0  0  0  0  0  0  0  0  0  0  0
   -0.6802  -13.4594    0.0000 N   0  0  0  0  0  0  0  0  0  0  0  0
   -2.2480   -5.6785    0.0000 N   0  0  0  0  0  0  0  0  0  0  0  0
   -1.0614   -6.5961    0.0000 C   0  0  0  0  0  0  0  0  0  0  0  0
    0.3265   -6.0272    0.0000 C   0  0  0  0  0  0  0  0  0  0  0  0
   -1.2628   -8.0825    0.0000 O   0  0  0  0  0  0  0  0  0  0  0  0
   -5.4796    0.9497    0.0000 C   0  0  0  0  0  0  0  0  0  0  0  0
   -6.8589    1.5393    0.0000 S   0  0  0  0  0  0  0  0  0  0  0  0
   -8.1107    2.3656    0.0000 S   0  0  0  0  0  0  0  0  0  0  0  0
   -9.1949    3.4022    0.0000 C   0  0  0  0  0  0  0  0  0  0  0  0
  -10.0766    4.6157    0.0000 C   0  0  0  0  0  0  0  0  0  0  0  0
  -11.3643    3.8464    0.0000 C   0  0  0  0  0  0  0  0  0  0  0  0
  -11.3418    2.3466    0.0000 O   0  0  0  0  0  0  0  0  0  0  0  0
  -12.6744    4.5769    0.0000 N   0  0  0  0  0  0  0  0  0  0  0  0
  -13.9621    3.8075    0.0000 C   0  0  0  0  0  0  0  0  0  0  0  0
  -15.2722    4.5380    0.0000 C   0  0  0  0  0  0  0  0  0  0  0  0
  -16.5599    3.7687    0.0000 C   0  0  0  0  0  0  0  0  0  0  0  0
  -17.8700    4.4991    0.0000 C   0  0  0  0  0  0  0  0  0  0  0  0
  -19.1576    3.7298    0.0000 N   0  0  0  0  0  0  0  0  0  0  0  0
  -20.4678    4.4603    0.0000 C   0  0  0  0  0  0  0  0  0  0  0  0
  -20.4902    5.9601    0.0000 N   0  0  0  0  0  0  0  0  0  0  0  0
  -21.7554    3.6909    0.0000 N   0  0  0  0  0  0  0  0  0  0  0  0
  -13.9396    2.3077    0.0000 C   0  0  0  0  0  0  0  0  0  0  0  0
  -12.6295    1.5772    0.0000 O   0  0  0  0  0  0  0  0  0  0  0  0
  -15.2273    1.5383    0.0000 N   0  0  0  0  0  0  0  0  0  0  0  0
  -15.2049    0.0385    0.0000 C   0  0  0  0  0  0  0  0  0  0  0  0
  -16.4925   -0.7308    0.0000 C   0  0  0  0  0  0  0  0  0  0  0  0
  -16.4701   -2.2307    0.0000 C   0  0  0  0  0  0  0  0  0  0  0  0
  -17.7578   -3.0000    0.0000 C   0  0  0  0  0  0  0  0  0  0  0  0
  -17.7353   -4.4999    0.0000 N   0  0  0  0  0  0  0  0  0  0  0  0
  -19.0230   -5.2692    0.0000 C   0  0  0  0  0  0  0  0  0  0  0  0
  -20.3331   -4.5387    0.0000 N   0  0  0  0  0  0  0  0  0  0  0  0
  -19.0006   -6.7690    0.0000 N   0  0  0  0  0  0  0  0  0  0  0  0
  -13.8948   -0.6920    0.0000 C   0  0  0  0  0  0  0  0  0  0  0  0
  -13.8723   -2.1918    0.0000 N   0  0  0  0  0  0  0  0  0  0  0  0
  -12.6071    0.0774    0.0000 O   0  0  0  0  0  0  0  0  0  0  0  0
  -10.7274    5.9672    0.0000 N   0  0  0  0  0  0  0  0  0  0  0  0
  -11.1265    7.4131    0.0000 C   0  0  0  0  0  0  0  0  0  0  0  0
  -12.6024    7.1453    0.0000 O   0  0  0  0  0  0  0  0  0  0  0  0
  1  2  1  0
  2  3  1  0
  3  4  1  0
  4  5  1  0
  6  5  1  6
  6  7  1  0
  7  8  1  0
  8  9  2  0
  8 10  1  0
 10 11  1  6
 11 12  1  0
 12 13  1  6
 13 14  1  0
 14 15  1  0
 15 16  2  0
 15 17  1  0
 12 18  1  0
 18 19  1  0
 19 20  1  0
 20 21  2  0
 20 22  1  0
 22 23  1  6
 23 24  1  0
 24 25  2  0
 24 26  1  0
 22 27  1  0
 27 28  1  0
 28 29  2  0
 28 30  1  0
 30 31  1  6
 31 32  1  0
 32 33  2  0
 33 34  1  0
 34 35  2  0
 35 36  1  0
 35 37  1  0
 37 38  2  0
 30 39  1  0
 39 40  1  0
 40 41  2  0
 40 42  1  0
 42 43  1  6
 43 44  1  0
 42 45  1  0
 45 46  1  0
 46 47  2  0
 46 48  1  0
 48 49  1  0
 49 50  1  6
 49 51  1  0
 51 52  1  0
 48 53  1  6
 53 54  1  0
 54 55  2  0
 54 56  1  0
 56 57  1  6
 57 58  1  0
 58 59  2  0
 59 60  1  0
 60 61  2  0
 61 62  1  0
 62 63  2  0
 63 64  1  0
 64 65  2  0
 65 66  1  0
 66 67  2  0
 61 68  1  0
 68 69  2  0
 56 70  1  0
 70 71  1  0
 71 72  2  0
 71 73  1  0
 73 74  1  6
 74 75  1  0
 75 76  1  0
 75 77  1  0
 73 78  1  0
 78 79  1  0
 79 80  2  0
 79 81  1  0
 81 82  1  6
 82 83  1  0
 83 84  1  0
 84 85  1  0
 85 86  1  0
 86 87  2  0
 86 88  1  0
 88 89  1  1
 89 90  1  0
 90 91  2  0
 90 92  1  0
 92 93  1  1
 93 94  1  0
 94 95  1  0
 95 96  1  0
 96 97  1  0
 97 98  2  0
 97 99  1  0
 92100  1  0
100101  1  0
101102  2  0
101103  1  0
103104  1  1
104105  1  0
105106  1  0
106107  1  0
107108  1  0
108109  2  0
108110  1  0
103111  1  0
111112  1  0
112113  1  0
112114  2  0
 88115  1  0
115116  1  0
116117  1  0
117118  1  0
118119  1  0
119120  1  1
120121  2  0
120122  1  0
122123  1  0
123124  1  6
124125  1  0
125126  1  0
126127  1  0
127128  1  0
128129  2  0
128130  1  0
123131  1  0
131132  2  0
131133  1  0
133134  1  0
134135  1  6
135136  1  0
136137  1  0
137138  1  0
138139  1  0
139140  2  0
139141  1  0
134142  1  0
142143  1  0
142144  2  0
119145  1  0
145146  1  0
146147  2  0
146  6  1  0
 19 10  1  0
 38 32  1  0
 69 58  1  0
 85 81  1  0
 67 62  1  0
M  END
>  <molecule_chembl_id>  (303) 
CHEMBL5198497

>  <canonical_smiles>  (303) 
CCCCC[C@@H]1NC(=O)[C@@H]2C[C@H](OCC(=O)O)CN2C(=O)[C@H](CC(=O)O)NC(=O)[C@H](Cc2ccc(O)cc2)NC(=O)[C@H](CO)NC(=O)[C@H]([C@@H](C)CC)NC(=O)[C@H](Cc2ccc(-c3ccccc3)cc2)NC(=O)[C@H](CC(C)C)NC(=O)[C@@H]2CCCN2C(=O)[C@@H](NC(=O)[C@H](CCCNC(=N)N)NC(=O)[C@H](CCCNC(=N)N)NC(C)=O)CSSC[C@@H](C(=O)N[C@@H](CCCNC(=N)N)C(=O)N[C@@H](CCCNC(=N)N)C(N)=O)NC1=O

>  <pchembl_value_mean>  (303) 
7.64

>  <inchi>  (303) 
InChI=1S/C94H144N28O23S2/c1-7-9-11-21-61-79(133)118-69(85(139)111-62(24-16-37-106-93(100)101)78(132)109-59(76(95)130)22-14-35-104-91(96)97)48-146-147-49-70(119-80(134)63(25-17-38-107-94(102)103)110-77(131)60(108-52(6)124)23-15-36-105-92(98)99)90(144)121-39-18-26-71(121)86(140)115-64(40-50(3)4)81(135)113-66(41-53-27-31-56(32-28-53)55-19-12-10-13-20-55)83(137)120-75(51(5)8-2)88(142)117-68(46-123)84(138)114-65(42-54-29-33-57(125)34-30-54)82(136)116-67(44-73(126)127)89(143)122-45-58(145-47-74(128)129)43-72(122)87(141)112-61/h10,12-13,19-20,27-34,50-51,58-72,75,123,125H,7-9,11,14-18,21-26,35-49H2,1-6H3,(H2,95,130)(H,108,124)(H,109,132)(H,110,131)(H,111,139)(H,112,141)(H,113,135)(H,114,138)(H,115,140)(H,116,136)(H,117,142)(H,118,133)(H,119,134)(H,120,137)(H,126,127)(H,128,129)(H4,96,97,104)(H4,98,99,105)(H4,100,101,106)(H4,102,103,107)/t51-,58-,59-,60-,61-,62-,63-,64-,65-,66-,67-,68-,69-,70-,71-,72-,75-/m0/s1

$$$$

     RDKit          2D

124132  0  0  0  0  0  0  0  0999 V2000
    6.6866    5.7262    0.0000 C   0  0  0  0  0  0  0  0  0  0  0  0
    5.1940    5.8748    0.0000 C   0  0  0  0  0  0  0  0  0  0  0  0
    4.3190    4.6564    0.0000 C   0  0  0  0  0  0  0  0  0  0  0  0
    4.9366    3.2895    0.0000 C   0  0  0  0  0  0  0  0  0  0  0  0
    2.8264    4.8050    0.0000 C   0  0  0  0  0  0  0  0  0  0  0  0
    2.4342    3.3572    0.0000 N   0  0  0  0  0  0  0  0  0  0  0  0
    1.5931    2.1151    0.0000 C   0  0  0  0  0  0  0  0  0  0  0  0
    2.6797    1.0811    0.0000 O   0  0  0  0  0  0  0  0  0  0  0  0
    0.3943    1.2135    0.0000 C   0  0  0  0  0  0  0  0  0  0  0  0
    1.2760    0.0000    0.0000 C   0  0  0  0  0  0  0  0  0  0  0  0
    0.3943   -1.2135    0.0000 C   0  0  0  0  0  0  0  0  0  0  0  0
   -1.0323   -0.7500    0.0000 C   0  0  0  0  0  0  0  0  0  0  0  0
   -1.0323    0.7500    0.0000 N   0  0  0  0  0  0  0  0  0  0  0  0
   -2.5321    0.7748    0.0000 C   0  0  0  0  0  0  0  0  0  0  0  0
   -2.8034   -0.7005    0.0000 O   0  0  0  0  0  0  0  0  0  0  0  0
   -3.9426    1.2852    0.0000 C   0  0  0  0  0  0  0  0  0  0  0  0
   -4.6782   -0.0220    0.0000 C   0  0  0  0  0  0  0  0  0  0  0  0
   -6.1781   -0.0385    0.0000 C   0  0  0  0  0  0  0  0  0  0  0  0
   -6.9424    1.2522    0.0000 C   0  0  0  0  0  0  0  0  0  0  0  0
   -8.4423    1.2356    0.0000 C   0  0  0  0  0  0  0  0  0  0  0  0
   -9.1779   -0.0716    0.0000 C   0  0  0  0  0  0  0  0  0  0  0  0
  -10.6778   -0.0881    0.0000 O   0  0  0  0  0  0  0  0  0  0  0  0
   -8.4136   -1.3623    0.0000 C   0  0  0  0  0  0  0  0  0  0  0  0
   -6.9137   -1.3457    0.0000 C   0  0  0  0  0  0  0  0  0  0  0  0
   -5.1109    2.2260    0.0000 N   0  0  0  0  0  0  0  0  0  0  0  0
   -5.9104    3.4951    0.0000 C   0  0  0  0  0  0  0  0  0  0  0  0
   -7.2939    2.9154    0.0000 O   0  0  0  0  0  0  0  0  0  0  0  0
   -6.2546    4.9551    0.0000 C   0  0  0  0  0  0  0  0  0  0  0  0
   -7.7513    4.8560    0.0000 N   0  0  0  0  0  0  0  0  0  0  0  0
   -8.5855    6.1026    0.0000 C   0  0  0  0  0  0  0  0  0  0  0  0
   -7.9230    7.4484    0.0000 O   0  0  0  0  0  0  0  0  0  0  0  0
  -10.0822    6.0035    0.0000 C   0  0  0  0  0  0  0  0  0  0  0  0
  -10.9164    7.2501    0.0000 C   0  0  0  0  0  0  0  0  0  0  0  0
  -10.2539    8.5959    0.0000 C   0  0  0  0  0  0  0  0  0  0  0  0
   -8.7572    8.6950    0.0000 O   0  0  0  0  0  0  0  0  0  0  0  0
  -11.0881    9.8425    0.0000 O   0  0  0  0  0  0  0  0  0  0  0  0
  -10.7447    4.6577    0.0000 N   0  0  0  0  0  0  0  0  0  0  0  0
  -12.2414    4.5586    0.0000 C   0  0  0  0  0  0  0  0  0  0  0  0
  -12.9039    3.2128    0.0000 O   0  0  0  0  0  0  0  0  0  0  0  0
  -13.0757    5.8052    0.0000 C   0  0  0  0  0  0  0  0  0  0  0  0
  -14.5724    5.7061    0.0000 C   0  0  0  0  0  0  0  0  0  0  0  0
  -15.2349    4.3603    0.0000 C   0  0  0  0  0  0  0  0  0  0  0  0
  -16.7316    4.2612    0.0000 C   0  0  0  0  0  0  0  0  0  0  0  0
  -17.3941    2.9154    0.0000 C   0  0  0  0  0  0  0  0  0  0  0  0
  -16.5599    1.6688    0.0000 C   0  0  0  0  0  0  0  0  0  0  0  0
  -17.2224    0.3230    0.0000 O   0  0  0  0  0  0  0  0  0  0  0  0
  -15.0632    1.7679    0.0000 C   0  0  0  0  0  0  0  0  0  0  0  0
  -14.4007    3.1137    0.0000 C   0  0  0  0  0  0  0  0  0  0  0  0
  -12.4132    7.1510    0.0000 N   0  0  0  0  0  0  0  0  0  0  0  0
  -13.2474    8.3976    0.0000 C   0  0  0  0  0  0  0  0  0  0  0  0
  -12.5849    9.7434    0.0000 O   0  0  0  0  0  0  0  0  0  0  0  0
  -14.7441    8.2985    0.0000 C   0  0  0  0  0  0  0  0  0  0  0  0
  -15.4066    6.9527    0.0000 C   0  0  0  0  0  0  0  0  0  0  0  0
  -16.9033    6.8536    0.0000 C   0  0  0  0  0  0  0  0  0  0  0  0
  -17.5658    5.5078    0.0000 C   0  0  0  0  0  0  0  0  0  0  0  0
  -19.0625    5.4087    0.0000 C   0  0  0  0  0  0  0  0  0  0  0  0
  -19.8968    6.6553    0.0000 C   0  0  0  0  0  0  0  0  0  0  0  0
  -19.2342    8.0011    0.0000 C   0  0  0  0  0  0  0  0  0  0  0  0
  -17.7375    8.1002    0.0000 C   0  0  0  0  0  0  0  0  0  0  0  0
  -15.5783    9.5451    0.0000 N   0  0  0  0  0  0  0  0  0  0  0  0
  -14.9158   10.8909    0.0000 C   0  0  0  0  0  0  0  0  0  0  0  0
  -13.4191   10.9900    0.0000 O   0  0  0  0  0  0  0  0  0  0  0  0
  -15.7500   12.1375    0.0000 C   0  0  0  0  0  0  0  0  0  0  0  0
  -15.0875   13.4833    0.0000 C   0  0  0  0  0  0  0  0  0  0  0  0
  -15.9217   14.7299    0.0000 C   0  0  0  0  0  0  0  0  0  0  0  0
  -17.4206   14.7878    0.0000 C   0  0  0  0  0  0  0  0  0  0  0  0
  -17.8288   16.2312    0.0000 N   0  0  0  0  0  0  0  0  0  0  0  0
  -16.5821   17.0654    0.0000 C   0  0  0  0  0  0  0  0  0  0  0  0
  -15.4035   16.1376    0.0000 N   0  0  0  0  0  0  0  0  0  0  0  0
  -17.2467   12.0384    0.0000 N   0  0  0  0  0  0  0  0  0  0  0  0
  -17.9092   10.6926    0.0000 C   0  0  0  0  0  0  0  0  0  0  0  0
  -17.0750    9.4460    0.0000 O   0  0  0  0  0  0  0  0  0  0  0  0
  -19.4060   10.5935    0.0000 C   0  0  0  0  0  0  0  0  0  0  0  0
  -20.2402   11.8401    0.0000 N   0  0  0  0  0  0  0  0  0  0  0  0
  -20.0685    9.2477    0.0000 C   0  0  0  0  0  0  0  0  0  0  0  0
  -21.5652    9.1486    0.0000 C   0  0  0  0  0  0  0  0  0  0  0  0
  -22.2277    7.8028    0.0000 C   0  0  0  0  0  0  0  0  0  0  0  0
  -23.7244    7.7037    0.0000 C   0  0  0  0  0  0  0  0  0  0  0  0
  -24.5586    8.9503    0.0000 C   0  0  0  0  0  0  0  0  0  0  0  0
  -23.8961   10.2961    0.0000 C   0  0  0  0  0  0  0  0  0  0  0  0
  -22.3994   10.3952    0.0000 C   0  0  0  0  0  0  0  0  0  0  0  0
   -6.1060    6.4478    0.0000 C   0  0  0  0  0  0  0  0  0  0  0  0
   -5.4808    7.8113    0.0000 C   0  0  0  0  0  0  0  0  0  0  0  0
   -4.4468    8.8979    0.0000 C   0  0  0  0  0  0  0  0  0  0  0  0
   -3.1160    9.5899    0.0000 C   0  0  0  0  0  0  0  0  0  0  0  0
   -1.6325    9.8123    0.0000 S   0  0  0  0  0  0  0  0  0  0  0  0
   -0.1573    9.5410    0.0000 C   0  0  0  0  0  0  0  0  0  0  0  0
    1.1500    8.8054    0.0000 C   0  0  0  0  0  0  0  0  0  0  0  0
    2.0907    9.9737    0.0000 C   0  0  0  0  0  0  0  0  0  0  0  0
    1.5493   11.3726    0.0000 O   0  0  0  0  0  0  0  0  0  0  0  0
    3.5729    9.7431    0.0000 N   0  0  0  0  0  0  0  0  0  0  0  0
    4.5137   10.9114    0.0000 C   0  0  0  0  0  0  0  0  0  0  0  0
    5.9958   10.6809    0.0000 C   0  0  0  0  0  0  0  0  0  0  0  0
    6.9366   11.8492    0.0000 C   0  0  0  0  0  0  0  0  0  0  0  0
    8.4188   11.6186    0.0000 C   0  0  0  0  0  0  0  0  0  0  0  0
    6.3952   13.2481    0.0000 C   0  0  0  0  0  0  0  0  0  0  0  0
    3.9722   12.3103    0.0000 C   0  0  0  0  0  0  0  0  0  0  0  0
    2.4901   12.5409    0.0000 O   0  0  0  0  0  0  0  0  0  0  0  0
    4.9130   13.4786    0.0000 N   0  0  0  0  0  0  0  0  0  0  0  0
    4.3716   14.8775    0.0000 C   0  0  0  0  0  0  0  0  0  0  0  0
    2.8894   15.1081    0.0000 C   0  0  0  0  0  0  0  0  0  0  0  0
    1.9487   13.9398    0.0000 O   0  0  0  0  0  0  0  0  0  0  0  0
    2.3480   16.5070    0.0000 N   0  0  0  0  0  0  0  0  0  0  0  0
    3.1615   17.7672    0.0000 C   0  0  0  0  0  0  0  0  0  0  0  0
    2.2143   18.9303    0.0000 C   0  0  0  0  0  0  0  0  0  0  0  0
    0.8154   18.3889    0.0000 C   0  0  0  0  0  0  0  0  0  0  0  0
    0.8981   16.8912    0.0000 C   0  0  0  0  0  0  0  0  0  0  0  0
   -0.2650   15.9440    0.0000 C   0  0  0  0  0  0  0  0  0  0  0  0
   -0.0263   14.4631    0.0000 O   0  0  0  0  0  0  0  0  0  0  0  0
   -1.6669   16.4777    0.0000 N   0  0  0  0  0  0  0  0  0  0  0  0
   -2.0591   17.9255    0.0000 C   0  0  0  0  0  0  0  0  0  0  0  0
   -3.5573   17.9999    0.0000 C   0  0  0  0  0  0  0  0  0  0  0  0
   -4.0910   16.5980    0.0000 C   0  0  0  0  0  0  0  0  0  0  0  0
   -2.9226   15.6573    0.0000 C   0  0  0  0  0  0  0  0  0  0  0  0
   -2.9970   14.1591    0.0000 C   0  0  0  0  0  0  0  0  0  0  0  0
   -4.3316   13.4745    0.0000 N   0  0  0  0  0  0  0  0  0  0  0  0
   -1.7368   13.3456    0.0000 O   0  0  0  0  0  0  0  0  0  0  0  0
    5.3124   16.0458    0.0000 C   0  0  0  0  0  0  0  0  0  0  0  0
    4.7710   17.4447    0.0000 C   0  0  0  0  0  0  0  0  0  0  0  0
    6.7945   15.8153    0.0000 C   0  0  0  0  0  0  0  0  0  0  0  0
    7.7353   16.9836    0.0000 C   0  0  0  0  0  0  0  0  0  0  0  0
    2.1475    7.6851    0.0000 N   0  0  0  0  0  0  0  0  0  0  0  0
    2.7272    6.3017    0.0000 C   0  0  0  0  0  0  0  0  0  0  0  0
    4.1872    6.6458    0.0000 O   0  0  0  0  0  0  0  0  0  0  0  0
  1  2  1  0
  2  3  1  0
  3  4  1  6
  3  5  1  0
  5  6  1  0
  6  7  1  0
  7  8  2  0
  7  9  1  0
  9 10  1  6
 10 11  1  0
 11 12  1  0
 12 13  1  0
 13 14  1  0
 14 15  2  0
 14 16  1  0
 16 17  1  6
 17 18  1  0
 18 19  2  0
 19 20  1  0
 20 21  2  0
 21 22  1  0
 21 23  1  0
 23 24  2  0
 16 25  1  0
 25 26  1  0
 26 27  2  0
 26 28  1  0
 28 29  1  1
 29 30  1  0
 30 31  2  0
 30 32  1  0
 32 33  1  1
 33 34  1  0
 34 35  2  0
 34 36  1  0
 32 37  1  0
 37 38  1  0
 38 39  2  0
 38 40  1  0
 40 41  1  6
 41 42  1  0
 42 43  2  0
 43 44  1  0
 44 45  2  0
 45 46  1  0
 45 47  1  0
 47 48  2  0
 40 49  1  0
 49 50  1  0
 50 51  2  0
 50 52  1  0
 52 53  1  6
 53 54  1  0
 54 55  2  0
 55 56  1  0
 56 57  2  0
 57 58  1  0
 58 59  2  0
 52 60  1  0
 60 61  1  0
 61 62  2  0
 61 63  1  0
 63 64  1  1
 64 65  1  0
 65 66  2  0
 66 67  1  0
 67 68  1  0
 68 69  2  0
 63 70  1  0
 70 71  1  0
 71 72  2  0
 71 73  1  0
 73 74  1  6
 73 75  1  0
 75 76  1  0
 76 77  2  0
 77 78  1  0
 78 79  2  0
 79 80  1  0
 80 81  2  0
 28 82  1  0
 82 83  1  0
 83 84  3  0
 84 85  1  0
 85 86  1  0
 86 87  1  0
 87 88  1  0
 88 89  1  1
 89 90  2  0
 89 91  1  0
 91 92  1  0
 92 93  1  6
 93 94  1  0
 94 95  1  0
 94 96  1  0
 92 97  1  0
 97 98  2  0
 97 99  1  0
100 99  1  6
100101  1  0
101102  2  0
101103  1  0
103104  1  0
104105  1  0
105106  1  0
106107  1  0
107108  1  6
108109  2  0
108110  1  0
110111  1  0
111112  1  0
112113  1  0
113114  1  0
114115  1  6
115116  1  0
115117  2  0
100118  1  0
118119  1  1
118120  1  0
120121  1  0
 88122  1  0
122123  1  0
123124  2  0
123  5  1  0
 13  9  1  0
 24 18  1  0
 48 42  1  0
 59 54  1  0
 69 65  1  0
 81 76  1  0
107103  1  0
114110  1  0
M  END
>  <molecule_chembl_id>  (304) 
CHEMBL5081562

>  <canonical_smiles>  (304) 
CC[C@H](C)C1NC(=O)[C@@H]2CCCN2C(=O)[C@H](Cc2ccc(O)cc2)NC(=O)[C@@H](NC(=O)[C@H](CC(=O)O)NC(=O)[C@H](Cc2ccc(O)cc2)NC(=O)[C@H](Cc2ccccc2)NC(=O)[C@H](Cc2c[nH]cn2)NC(=O)[C@@H](N)Cc2ccccc2)CC#CCSC[C@@H](C(=O)N[C@@H](CC(C)C)C(=O)N[C@H](C(=O)N2CCC[C@H]2C(=O)N2CCC[C@H]2C(N)=O)[C@@H](C)CC)NC1=O

>  <pchembl_value_mean>  (304) 
7.64

>  <inchi>  (304) 
InChI=1S/C88H115N17O18S/c1-7-51(5)73-85(120)100-68(83(118)95-62(40-50(3)4)82(117)102-74(52(6)8-2)88(123)105-38-19-27-71(105)87(122)103-36-17-25-69(103)75(90)110)48-124-39-16-15-24-61(77(112)99-67(44-56-30-34-59(107)35-31-56)86(121)104-37-18-26-70(104)84(119)101-73)93-81(116)66(46-72(108)109)98-79(114)64(43-55-28-32-58(106)33-29-55)96-78(113)63(42-54-22-13-10-14-23-54)97-80(115)65(45-57-47-91-49-92-57)94-76(111)60(89)41-53-20-11-9-12-21-53/h9-14,20-23,28-35,47,49-52,60-71,73-74,106-107H,7-8,17-19,24-27,36-46,48,89H2,1-6H3,(H2,90,110)(H,91,92)(H,93,116)(H,94,111)(H,95,118)(H,96,113)(H,97,115)(H,98,114)(H,99,112)(H,100,120)(H,101,119)(H,102,117)(H,108,109)/t51-,52-,60-,61-,62-,63-,64-,65-,66-,67-,68-,69-,70-,71-,73?,74-/m0/s1

$$$$

     RDKit          2D

 31 35  0  0  0  0  0  0  0  0999 V2000
    5.2500   -1.2990    0.0000 C   0  0  0  0  0  0  0  0  0  0  0  0
    3.7500   -1.2990    0.0000 C   0  0  0  0  0  0  0  0  0  0  0  0
    3.0000    0.0000    0.0000 C   0  0  0  0  0  0  0  0  0  0  0  0
    3.7500    1.2990    0.0000 O   0  0  0  0  0  0  0  0  0  0  0  0
    1.5000    0.0000    0.0000 N   0  0  0  0  0  0  0  0  0  0  0  0
    0.7500   -1.2990    0.0000 C   0  0  0  0  0  0  0  0  0  0  0  0
   -0.7500   -1.2990    0.0000 C   0  0  0  0  0  0  0  0  0  0  0  0
   -1.5000    0.0000    0.0000 N   0  0  0  0  0  0  0  0  0  0  0  0
   -2.9832   -0.2236    0.0000 C   0  0  0  0  0  0  0  0  0  0  0  0
   -4.0828    0.7967    0.0000 C   0  0  0  0  0  0  0  0  0  0  0  0
   -5.4343    0.1459    0.0000 C   0  0  0  0  0  0  0  0  0  0  0  0
   -6.6736    0.9909    0.0000 C   0  0  0  0  0  0  0  0  0  0  0  0
   -8.0251    0.3400    0.0000 C   0  0  0  0  0  0  0  0  0  0  0  0
   -8.8701   -0.8993    0.0000 C   0  0  0  0  0  0  0  0  0  0  0  0
   -9.5209    0.4521    0.0000 C   0  0  0  0  0  0  0  0  0  0  0  0
   -6.5615    2.4867    0.0000 C   0  0  0  0  0  0  0  0  0  0  0  0
   -7.8009    3.3316    0.0000 C   0  0  0  0  0  0  0  0  0  0  0  0
   -9.1524    2.6808    0.0000 C   0  0  0  0  0  0  0  0  0  0  0  0
   -9.6231    1.2566    0.0000 O   0  0  0  0  0  0  0  0  0  0  0  0
  -10.3917    3.5258    0.0000 C   0  0  0  0  0  0  0  0  0  0  0  0
  -10.2796    5.0216    0.0000 C   0  0  0  0  0  0  0  0  0  0  0  0
   -8.9282    5.6724    0.0000 C   0  0  0  0  0  0  0  0  0  0  0  0
   -7.6888    4.8274    0.0000 C   0  0  0  0  0  0  0  0  0  0  0  0
   -6.3374    5.4783    0.0000 Cl  0  0  0  0  0  0  0  0  0  0  0  0
   -5.2101    3.1375    0.0000 C   0  0  0  0  0  0  0  0  0  0  0  0
   -5.0980    4.6333    0.0000 F   0  0  0  0  0  0  0  0  0  0  0  0
   -3.9707    2.2925    0.0000 C   0  0  0  0  0  0  0  0  0  0  0  0
   -2.7314    3.1375    0.0000 O   0  0  0  0  0  0  0  0  0  0  0  0
   -1.2980    2.6953    0.0000 C   0  0  0  0  0  0  0  0  0  0  0  0
   -0.7500    1.2990    0.0000 C   0  0  0  0  0  0  0  0  0  0  0  0
    0.7500    1.2990    0.0000 C   0  0  0  0  0  0  0  0  0  0  0  0
  1  2  2  0
  2  3  1  0
  3  4  2  0
  3  5  1  0
  5  6  1  0
  6  7  1  0
  7  8  1  0
  8  9  1  0
  9 10  1  0
 10 11  2  0
 11 12  1  0
 12 13  1  0
 13 14  1  0
 14 15  1  0
 12 16  2  0
 16 17  1  0
 17 18  2  0
 18 19  1  0
 18 20  1  0
 20 21  2  0
 21 22  1  0
 22 23  2  0
 23 24  1  0
 16 25  1  0
 25 26  1  0
 25 27  2  0
 27 28  1  0
 28 29  1  0
 30 29  1  1
 30 31  1  0
 31  5  1  0
 30  8  1  0
 27 10  1  0
 15 13  1  0
 23 17  1  0
M  END
>  <molecule_chembl_id>  (305) 
CHEMBL5434387

>  <canonical_smiles>  (305) 
C=CC(=O)N1CCN2Cc3cc(C4CC4)c(-c4c(O)cccc4Cl)c(F)c3OC[C@H]2C1

>  <pchembl_value_mean>  (305) 
7.66

>  <inchi>  (305) 
InChI=1S/C24H24ClFN2O3/c1-2-20(30)28-9-8-27-11-15-10-17(14-6-7-14)21(22-18(25)4-3-5-19(22)29)23(26)24(15)31-13-16(27)12-28/h2-5,10,14,16,29H,1,6-9,11-13H2/t16-/m1/s1

$$$$

     RDKit          2D

 47 54  0  0  0  0  0  0  0  0999 V2000
    2.0490   -4.6471    0.0000 H   0  0  0  0  0  0  0  0  0  0  0  0
    0.7500   -3.8971    0.0000 C   0  0  0  0  0  0  0  0  0  0  0  0
   -0.5490   -3.1471    0.0000 H   0  0  0  0  0  0  0  0  0  0  0  0
    1.5000   -2.5981    0.0000 O   0  0  0  0  0  0  0  0  0  0  0  0
    0.7500   -1.2990    0.0000 C   0  0  0  0  0  0  0  0  0  0  0  0
    1.5000    0.0000    0.0000 N   0  0  0  0  0  0  0  0  0  0  0  0
    0.7500    1.2990    0.0000 C   0  0  0  0  0  0  0  0  0  0  0  0
    1.5000    2.5981    0.0000 N   0  0  0  0  0  0  0  0  0  0  0  0
    3.0000    2.5981    0.0000 C   0  0  0  0  0  0  0  0  0  0  0  0
    3.7500    3.8971    0.0000 C   0  0  0  0  0  0  0  0  0  0  0  0
    4.0619    5.3643    0.0000 C   0  0  0  0  0  0  0  0  0  0  0  0
    2.7628    6.1143    0.0000 C   0  0  0  0  0  0  0  0  0  0  0  0
    1.6481    5.1106    0.0000 C   0  0  0  0  0  0  0  0  0  0  0  0
    0.7500    3.8971    0.0000 C   0  0  0  0  0  0  0  0  0  0  0  0
    2.2582    3.7403    0.0000 N   0  0  0  0  0  0  0  0  0  0  0  0
   -0.7500    1.2990    0.0000 C   0  0  0  0  0  0  0  0  0  0  0  0
   -1.5000    2.5981    0.0000 C   0  0  0  0  0  0  0  0  0  0  0  0
   -3.0000    2.5981    0.0000 N   0  0  0  0  0  0  0  0  0  0  0  0
   -3.7500    1.2990    0.0000 C   0  0  0  0  0  0  0  0  0  0  0  0
   -5.2500    1.2990    0.0000 C   0  0  0  0  0  0  0  0  0  0  0  0
   -6.0000   -0.0000    0.0000 C   0  0  0  0  0  0  0  0  0  0  0  0
   -7.5000   -0.0000    0.0000 C   0  0  0  0  0  0  0  0  0  0  0  0
   -8.2500    1.2990    0.0000 C   0  0  0  0  0  0  0  0  0  0  0  0
   -7.5000    2.5981    0.0000 C   0  0  0  0  0  0  0  0  0  0  0  0
   -8.2500    3.8971    0.0000 C   0  0  0  0  0  0  0  0  0  0  0  0
   -7.5000    5.1962    0.0000 C   0  0  0  0  0  0  0  0  0  0  0  0
   -6.0000    5.1962    0.0000 C   0  0  0  0  0  0  0  0  0  0  0  0
   -5.2500    6.4952    0.0000 F   0  0  0  0  0  0  0  0  0  0  0  0
   -5.2500    3.8971    0.0000 C   0  0  0  0  0  0  0  0  0  0  0  0
   -3.7500    3.8971    0.0000 C   0  0  0  0  0  0  0  0  0  0  0  0
   -2.2500    3.8971    0.0000 C   0  0  0  0  0  0  0  0  0  0  0  0
   -6.0000    2.5981    0.0000 C   0  0  0  0  0  0  0  0  0  0  0  0
   -3.0000    0.0000    0.0000 C   0  0  0  0  0  0  0  0  0  0  0  0
   -3.7500   -1.2990    0.0000 F   0  0  0  0  0  0  0  0  0  0  0  0
   -1.5000    0.0000    0.0000 C   0  0  0  0  0  0  0  0  0  0  0  0
   -0.7500   -1.2990    0.0000 N   0  0  0  0  0  0  0  0  0  0  0  0
   -0.0000   -5.1962    0.0000 C   0  0  0  0  0  0  0  0  0  0  0  0
    1.4672   -5.5080    0.0000 C   0  0  0  0  0  0  0  0  0  0  0  0
    1.6240   -6.9998    0.0000 C   0  0  0  0  0  0  0  0  0  0  0  0
    0.2537   -7.6099    0.0000 C   0  0  0  0  0  0  0  0  0  0  0  0
   -0.7500   -6.4952    0.0000 N   0  0  0  0  0  0  0  0  0  0  0  0
   -2.2172   -6.1833    0.0000 C   0  0  0  0  0  0  0  0  0  0  0  0
   -2.3740   -4.6915    0.0000 C   0  0  0  0  0  0  0  0  0  0  0  0
   -3.6731   -3.9415    0.0000 C   0  0  0  0  0  0  0  0  0  0  0  0
   -4.9721   -4.6915    0.0000 F   0  0  0  0  0  0  0  0  0  0  0  0
   -3.6731   -2.4415    0.0000 F   0  0  0  0  0  0  0  0  0  0  0  0
   -1.0037   -4.0814    0.0000 C   0  0  0  0  0  0  0  0  0  0  0  0
  1  2  1  0
  2  3  1  0
  2  4  1  0
  4  5  1  0
  5  6  2  0
  6  7  1  0
  7  8  1  0
  8  9  1  0
 10  9  1  6
 10 11  1  0
 11 12  1  0
 13 12  1  6
 13 14  1  0
 13 15  1  0
  7 16  2  0
 16 17  1  0
 17 18  2  0
 18 19  1  0
 19 20  1  0
 20 21  2  0
 21 22  1  0
 22 23  2  0
 23 24  1  0
 24 25  2  0
 25 26  1  0
 26 27  2  0
 27 28  1  0
 27 29  1  0
 29 30  1  0
 30 31  3  0
 29 32  2  0
 19 33  2  0
 33 34  1  0
 33 35  1  0
 35 36  2  0
  2 37  1  0
 37 38  1  0
 38 39  1  0
 39 40  1  0
 40 41  1  0
 41 42  1  0
 42 43  1  0
 43 44  2  0
 44 45  1  0
 44 46  1  0
 43 47  1  0
 36  5  1  0
 41 37  1  0
 14  8  1  0
 35 16  1  0
 47 37  1  0
 15 10  1  0
 32 20  1  0
 32 24  1  0
M  ISO  2   1   2   3   2
M  END
>  <molecule_chembl_id>  (306) 
CHEMBL5429156

>  <canonical_smiles>  (306) 
[2H]C([2H])(Oc1nc(N2C[C@H]3CC[C@@H](C2)N3)c2cnc(-c3cccc4ccc(F)c(C#C)c34)c(F)c2n1)C12CCCN1CC(=C(F)F)C2

>  <pchembl_value_mean>  (306) 
7.69

>  <inchi>  (306) 
InChI=1S/C34H30F4N6O/c1-2-23-26(35)10-7-19-5-3-6-24(27(19)23)29-28(36)30-25(14-39-29)32(43-16-21-8-9-22(17-43)40-21)42-33(41-30)45-18-34-11-4-12-44(34)15-20(13-34)31(37)38/h1,3,5-7,10,14,21-22,40H,4,8-9,11-13,15-18H2/t21-,22+,34?/i18D2

$$$$

     RDKit          2D

149156  0  0  0  0  0  0  0  0999 V2000
  -15.0482    9.7925    0.0000 C   0  0  0  0  0  0  0  0  0  0  0  0
  -13.5723    9.5246    0.0000 C   0  0  0  0  0  0  0  0  0  0  0  0
  -12.6024   10.6689    0.0000 C   0  0  0  0  0  0  0  0  0  0  0  0
  -13.1084   12.0810    0.0000 C   0  0  0  0  0  0  0  0  0  0  0  0
  -11.1265   10.4011    0.0000 C   0  0  0  0  0  0  0  0  0  0  0  0
  -10.7274   11.8470    0.0000 N   0  0  0  0  0  0  0  0  0  0  0  0
  -10.0766   13.1984    0.0000 C   0  0  0  0  0  0  0  0  0  0  0  0
  -11.3643   13.9678    0.0000 O   0  0  0  0  0  0  0  0  0  0  0  0
   -9.1949   14.4120    0.0000 C   0  0  0  0  0  0  0  0  0  0  0  0
  -10.3245   15.3989    0.0000 C   0  0  0  0  0  0  0  0  0  0  0  0
  -11.7440   14.9141    0.0000 C   0  0  0  0  0  0  0  0  0  0  0  0
  -12.0339   13.4423    0.0000 C   0  0  0  0  0  0  0  0  0  0  0  0
  -13.4534   12.9575    0.0000 C   0  0  0  0  0  0  0  0  0  0  0  0
  -14.5830   13.9444    0.0000 C   0  0  0  0  0  0  0  0  0  0  0  0
  -16.0025   13.4596    0.0000 C   0  0  0  0  0  0  0  0  0  0  0  0
  -16.2924   11.9879    0.0000 C   0  0  0  0  0  0  0  0  0  0  0  0
  -17.7119   11.5031    0.0000 C   0  0  0  0  0  0  0  0  0  0  0  0
  -18.8415   12.4900    0.0000 C   0  0  0  0  0  0  0  0  0  0  0  0
  -18.5516   13.9617    0.0000 C   0  0  0  0  0  0  0  0  0  0  0  0
  -17.1321   14.4465    0.0000 C   0  0  0  0  0  0  0  0  0  0  0  0
  -14.2931   15.4162    0.0000 C   0  0  0  0  0  0  0  0  0  0  0  0
  -12.8736   15.9010    0.0000 C   0  0  0  0  0  0  0  0  0  0  0  0
   -8.1107   15.4486    0.0000 N   0  0  0  0  0  0  0  0  0  0  0  0
   -6.8589   16.2749    0.0000 C   0  0  0  0  0  0  0  0  0  0  0  0
   -7.5697   17.5958    0.0000 O   0  0  0  0  0  0  0  0  0  0  0  0
   -5.4796   16.8645    0.0000 C   0  0  0  0  0  0  0  0  0  0  0  0
   -5.9431   18.2910    0.0000 C   0  0  0  0  0  0  0  0  0  0  0  0
   -7.4103   18.6029    0.0000 C   0  0  0  0  0  0  0  0  0  0  0  0
   -8.4140   17.4882    0.0000 C   0  0  0  0  0  0  0  0  0  0  0  0
   -9.8813   17.8001    0.0000 C   0  0  0  0  0  0  0  0  0  0  0  0
  -10.3448   19.2266    0.0000 C   0  0  0  0  0  0  0  0  0  0  0  0
   -9.3411   20.3414    0.0000 C   0  0  0  0  0  0  0  0  0  0  0  0
   -7.8739   20.0295    0.0000 C   0  0  0  0  0  0  0  0  0  0  0  0
   -4.0172   17.1982    0.0000 N   0  0  0  0  0  0  0  0  0  0  0  0
   -2.5187   17.2655    0.0000 C   0  0  0  0  0  0  0  0  0  0  0  0
   -2.8160   18.7358    0.0000 O   0  0  0  0  0  0  0  0  0  0  0  0
   -1.0323   17.0642    0.0000 C   0  0  0  0  0  0  0  0  0  0  0  0
   -1.0323   18.5642    0.0000 C   0  0  0  0  0  0  0  0  0  0  0  0
   -2.2458   19.4459    0.0000 C   0  0  0  0  0  0  0  0  0  0  0  0
   -2.0890   20.9376    0.0000 C   0  0  0  0  0  0  0  0  0  0  0  0
   -3.3025   21.8193    0.0000 C   0  0  0  0  0  0  0  0  0  0  0  0
   -4.6729   21.2092    0.0000 C   0  0  0  0  0  0  0  0  0  0  0  0
   -4.8297   19.7174    0.0000 C   0  0  0  0  0  0  0  0  0  0  0  0
   -3.6161   18.8358    0.0000 C   0  0  0  0  0  0  0  0  0  0  0  0
    0.3943   19.0277    0.0000 C   0  0  0  0  0  0  0  0  0  0  0  0
    1.2760   17.8142    0.0000 C   0  0  0  0  0  0  0  0  0  0  0  0
    0.3943   16.6007    0.0000 N   0  0  0  0  0  0  0  0  0  0  0  0
    1.7152   15.8899    0.0000 C   0  0  0  0  0  0  0  0  0  0  0  0
    2.5415   17.1417    0.0000 O   0  0  0  0  0  0  0  0  0  0  0  0
    2.8879   14.9546    0.0000 C   0  0  0  0  0  0  0  0  0  0  0  0
    3.9245   16.0388    0.0000 N   0  0  0  0  0  0  0  0  0  0  0  0
    5.3818   15.6832    0.0000 C   0  0  0  0  0  0  0  0  0  0  0  0
    5.8024   14.2434    0.0000 O   0  0  0  0  0  0  0  0  0  0  0  0
    6.4184   16.7674    0.0000 C   0  0  0  0  0  0  0  0  0  0  0  0
    7.8756   16.4118    0.0000 C   0  0  0  0  0  0  0  0  0  0  0  0
    8.9122   17.4960    0.0000 C   0  0  0  0  0  0  0  0  0  0  0  0
   10.3694   17.1403    0.0000 C   0  0  0  0  0  0  0  0  0  0  0  0
   11.4060   18.2245    0.0000 N   0  0  0  0  0  0  0  0  0  0  0  0
   12.8633   17.8689    0.0000 C   0  0  0  0  0  0  0  0  0  0  0  0
   13.2839   16.4291    0.0000 N   0  0  0  0  0  0  0  0  0  0  0  0
   13.8998   18.9531    0.0000 N   0  0  0  0  0  0  0  0  0  0  0  0
    5.9977   18.2072    0.0000 N   0  0  0  0  0  0  0  0  0  0  0  0
    7.0343   19.2914    0.0000 C   0  0  0  0  0  0  0  0  0  0  0  0
    8.4915   18.9358    0.0000 O   0  0  0  0  0  0  0  0  0  0  0  0
    6.6137   20.7312    0.0000 C   0  0  0  0  0  0  0  0  0  0  0  0
    7.6503   21.8154    0.0000 C   0  0  0  0  0  0  0  0  0  0  0  0
    7.2296   23.2552    0.0000 C   0  0  0  0  0  0  0  0  0  0  0  0
    8.2662   24.3394    0.0000 C   0  0  0  0  0  0  0  0  0  0  0  0
    7.8456   25.7792    0.0000 N   0  0  0  0  0  0  0  0  0  0  0  0
    8.8822   26.8634    0.0000 C   0  0  0  0  0  0  0  0  0  0  0  0
   10.3394   26.5078    0.0000 N   0  0  0  0  0  0  0  0  0  0  0  0
    8.4615   28.3032    0.0000 N   0  0  0  0  0  0  0  0  0  0  0  0
    5.1564   21.0868    0.0000 N   0  0  0  0  0  0  0  0  0  0  0  0
    4.7358   22.5266    0.0000 C   0  0  0  0  0  0  0  0  0  0  0  0
    3.2786   22.8823    0.0000 C   0  0  0  0  0  0  0  0  0  0  0  0
    5.7724   23.6108    0.0000 O   0  0  0  0  0  0  0  0  0  0  0  0
    3.8748   13.8250    0.0000 C   0  0  0  0  0  0  0  0  0  0  0  0
    4.6442   12.5373    0.0000 S   0  0  0  0  0  0  0  0  0  0  0  0
    5.1713   11.1330    0.0000 S   0  0  0  0  0  0  0  0  0  0  0  0
    5.4391    9.6571    0.0000 C   0  0  0  0  0  0  0  0  0  0  0  0
    5.4391    8.1571    0.0000 C   0  0  0  0  0  0  0  0  0  0  0  0
    6.9331    8.0226    0.0000 C   0  0  0  0  0  0  0  0  0  0  0  0
    7.7965    9.2492    0.0000 O   0  0  0  0  0  0  0  0  0  0  0  0
    7.5636    6.6616    0.0000 N   0  0  0  0  0  0  0  0  0  0  0  0
    9.0576    6.5271    0.0000 C   0  0  0  0  0  0  0  0  0  0  0  0
    9.6881    5.1661    0.0000 C   0  0  0  0  0  0  0  0  0  0  0  0
   11.1820    5.0316    0.0000 C   0  0  0  0  0  0  0  0  0  0  0  0
   11.8126    3.6706    0.0000 C   0  0  0  0  0  0  0  0  0  0  0  0
   13.3065    3.5361    0.0000 N   0  0  0  0  0  0  0  0  0  0  0  0
   13.9371    2.1751    0.0000 C   0  0  0  0  0  0  0  0  0  0  0  0
   13.0737    0.9485    0.0000 N   0  0  0  0  0  0  0  0  0  0  0  0
   15.4310    2.0406    0.0000 N   0  0  0  0  0  0  0  0  0  0  0  0
    9.9210    7.7537    0.0000 C   0  0  0  0  0  0  0  0  0  0  0  0
    9.2904    9.1148    0.0000 O   0  0  0  0  0  0  0  0  0  0  0  0
   11.4149    7.6193    0.0000 N   0  0  0  0  0  0  0  0  0  0  0  0
   12.2784    8.8458    0.0000 C   0  0  0  0  0  0  0  0  0  0  0  0
   13.7723    8.7114    0.0000 C   0  0  0  0  0  0  0  0  0  0  0  0
   14.6358    9.9380    0.0000 C   0  0  0  0  0  0  0  0  0  0  0  0
   16.1297    9.8035    0.0000 C   0  0  0  0  0  0  0  0  0  0  0  0
   16.9931   11.0301    0.0000 N   0  0  0  0  0  0  0  0  0  0  0  0
   18.4871   10.8956    0.0000 C   0  0  0  0  0  0  0  0  0  0  0  0
   19.1176    9.5346    0.0000 N   0  0  0  0  0  0  0  0  0  0  0  0
   19.3505   12.1222    0.0000 N   0  0  0  0  0  0  0  0  0  0  0  0
   11.6478   10.2069    0.0000 C   0  0  0  0  0  0  0  0  0  0  0  0
   12.5113   11.4335    0.0000 N   0  0  0  0  0  0  0  0  0  0  0  0
   10.1539   10.3413    0.0000 O   0  0  0  0  0  0  0  0  0  0  0  0
    5.1713    6.6812    0.0000 N   0  0  0  0  0  0  0  0  0  0  0  0
    4.6442    5.2768    0.0000 C   0  0  0  0  0  0  0  0  0  0  0  0
    5.9956    4.6260    0.0000 O   0  0  0  0  0  0  0  0  0  0  0  0
    3.8748    3.9892    0.0000 C   0  0  0  0  0  0  0  0  0  0  0  0
    5.0884    3.1075    0.0000 C   0  0  0  0  0  0  0  0  0  0  0  0
    4.9316    1.6157    0.0000 C   0  0  0  0  0  0  0  0  0  0  0  0
    6.4587    3.7176    0.0000 C   0  0  0  0  0  0  0  0  0  0  0  0
    2.8879    2.8596    0.0000 N   0  0  0  0  0  0  0  0  0  0  0  0
    1.7152    1.9243    0.0000 C   0  0  0  0  0  0  0  0  0  0  0  0
    2.5415    0.6725    0.0000 O   0  0  0  0  0  0  0  0  0  0  0  0
    0.3943    1.2135    0.0000 C   0  0  0  0  0  0  0  0  0  0  0  0
    1.2760    0.0000    0.0000 C   0  0  0  0  0  0  0  0  0  0  0  0
    0.3943   -1.2135    0.0000 C   0  0  0  0  0  0  0  0  0  0  0  0
   -1.0323   -0.7500    0.0000 C   0  0  0  0  0  0  0  0  0  0  0  0
   -1.0323    0.7500    0.0000 N   0  0  0  0  0  0  0  0  0  0  0  0
   -2.5187    0.5487    0.0000 C   0  0  0  0  0  0  0  0  0  0  0  0
   -2.4514   -0.9498    0.0000 O   0  0  0  0  0  0  0  0  0  0  0  0
   -4.0172    0.6159    0.0000 C   0  0  0  0  0  0  0  0  0  0  0  0
   -4.2186   -0.8705    0.0000 C   0  0  0  0  0  0  0  0  0  0  0  0
   -5.6065   -1.4393    0.0000 C   0  0  0  0  0  0  0  0  0  0  0  0
   -6.7931   -0.5217    0.0000 O   0  0  0  0  0  0  0  0  0  0  0  0
   -5.8079   -2.9257    0.0000 O   0  0  0  0  0  0  0  0  0  0  0  0
   -5.4796    0.9497    0.0000 N   0  0  0  0  0  0  0  0  0  0  0  0
   -6.8589    1.5393    0.0000 C   0  0  0  0  0  0  0  0  0  0  0  0
   -7.5697    0.2184    0.0000 O   0  0  0  0  0  0  0  0  0  0  0  0
   -8.1107    2.3656    0.0000 C   0  0  0  0  0  0  0  0  0  0  0  0
   -9.0460    1.1929    0.0000 C   0  0  0  0  0  0  0  0  0  0  0  0
  -10.5292    1.4164    0.0000 C   0  0  0  0  0  0  0  0  0  0  0  0
  -11.0772    2.8127    0.0000 C   0  0  0  0  0  0  0  0  0  0  0  0
  -12.5605    3.0363    0.0000 C   0  0  0  0  0  0  0  0  0  0  0  0
  -13.4957    1.8636    0.0000 C   0  0  0  0  0  0  0  0  0  0  0  0
  -14.9790    2.0871    0.0000 O   0  0  0  0  0  0  0  0  0  0  0  0
  -12.9477    0.4672    0.0000 C   0  0  0  0  0  0  0  0  0  0  0  0
  -11.4645    0.2437    0.0000 C   0  0  0  0  0  0  0  0  0  0  0  0
   -9.1949    3.4022    0.0000 N   0  0  0  0  0  0  0  0  0  0  0  0
  -10.0766    4.6157    0.0000 C   0  0  0  0  0  0  0  0  0  0  0  0
  -11.3643    3.8464    0.0000 O   0  0  0  0  0  0  0  0  0  0  0  0
  -10.7274    5.9672    0.0000 C   0  0  0  0  0  0  0  0  0  0  0  0
  -12.1318    5.4401    0.0000 C   0  0  0  0  0  0  0  0  0  0  0  0
  -13.2904    6.3928    0.0000 O   0  0  0  0  0  0  0  0  0  0  0  0
  -11.1265    7.4131    0.0000 N   0  0  0  0  0  0  0  0  0  0  0  0
  -11.2610    8.9071    0.0000 C   0  0  0  0  0  0  0  0  0  0  0  0
  -12.7610    8.9071    0.0000 O   0  0  0  0  0  0  0  0  0  0  0  0
  1  2  1  0
  2  3  1  0
  3  4  1  6
  3  5  1  0
  5  6  1  6
  6  7  1  0
  7  8  2  0
  7  9  1  0
  9 10  1  6
 10 11  1  0
 11 12  2  0
 12 13  1  0
 13 14  2  0
 14 15  1  0
 15 16  2  0
 16 17  1  0
 17 18  2  0
 18 19  1  0
 19 20  2  0
 14 21  1  0
 21 22  2  0
  9 23  1  0
 23 24  1  0
 24 25  2  0
 24 26  1  0
 26 27  1  6
 27 28  1  0
 28 29  2  0
 29 30  1  0
 30 31  2  0
 31 32  1  0
 32 33  2  0
 26 34  1  0
 34 35  1  0
 35 36  2  0
 37 35  1  6
 37 38  1  0
 38 39  1  1
 39 40  2  0
 40 41  1  0
 41 42  2  0
 42 43  1  0
 43 44  2  0
 38 45  1  0
 45 46  1  0
 46 47  1  0
 47 48  1  0
 48 49  2  0
 48 50  1  0
 50 51  1  1
 51 52  1  0
 52 53  2  0
 52 54  1  0
 54 55  1  1
 55 56  1  0
 56 57  1  0
 57 58  1  0
 58 59  1  0
 59 60  2  0
 59 61  1  0
 54 62  1  0
 62 63  1  0
 63 64  2  0
 63 65  1  0
 65 66  1  1
 66 67  1  0
 67 68  1  0
 68 69  1  0
 69 70  1  0
 70 71  2  0
 70 72  1  0
 65 73  1  0
 73 74  1  0
 74 75  1  0
 74 76  2  0
 50 77  1  0
 77 78  1  0
 78 79  1  0
 79 80  1  0
 80 81  1  0
 81 82  1  1
 82 83  2  0
 82 84  1  0
 84 85  1  0
 85 86  1  6
 86 87  1  0
 87 88  1  0
 88 89  1  0
 89 90  1  0
 90 91  2  0
 90 92  1  0
 85 93  1  0
 93 94  2  0
 93 95  1  0
 95 96  1  0
 96 97  1  6
 97 98  1  0
 98 99  1  0
 99100  1  0
100101  1  0
101102  2  0
101103  1  0
 96104  1  0
104105  1  0
104106  2  0
 81107  1  0
107108  1  0
108109  2  0
108110  1  0
110111  1  6
111112  1  0
111113  1  0
110114  1  0
114115  1  0
115116  2  0
115117  1  0
117118  1  6
118119  1  0
119120  1  0
120121  1  0
121122  1  0
122123  2  0
122124  1  0
124125  1  6
125126  1  0
126127  2  0
126128  1  0
124129  1  0
129130  1  0
130131  2  0
130132  1  0
132133  1  6
133134  1  0
134135  2  0
135136  1  0
136137  2  0
137138  1  0
137139  1  0
139140  2  0
132141  1  0
141142  1  0
142143  2  0
142144  1  0
144145  1  6
145146  1  0
144147  1  0
147148  1  0
148149  2  0
148  5  1  0
 22 11  1  0
 33 28  1  0
 47 37  1  0
121117  1  0
140134  1  0
 20 15  1  0
 44 39  1  0
M  END
>  <molecule_chembl_id>  (307) 
CHEMBL5176621

>  <canonical_smiles>  (307) 
CC[C@H](C)[C@@H]1NC(=O)[C@H](Cc2ccc(-c3ccccc3)cc2)NC(=O)[C@H](Cc2ccccc2)NC(=O)[C@@H]2[C@@H](c3ccccc3)CCN2C(=O)[C@@H](NC(=O)[C@H](CCCNC(=N)N)NC(=O)[C@H](CCCNC(=N)N)NC(C)=O)CSSC[C@@H](C(=O)N[C@@H](CCCNC(=N)N)C(=O)N[C@@H](CCCNC(=N)N)C(N)=O)NC(=O)[C@H](C(C)C)NC(=O)[C@@H]2CCCN2C(=O)[C@H](CC(=O)O)NC(=O)[C@H](Cc2ccc(O)cc2)NC(=O)[C@H](CO)NC1=O

>  <pchembl_value_mean>  (307) 
7.7

>  <inchi>  (307) 
InChI=1S/C99H140N28O20S2/c1-6-55(4)79-92(144)121-73(51-128)88(140)118-69(49-59-34-38-63(130)39-35-59)86(138)120-72(50-77(131)132)94(146)126-45-20-31-76(126)90(142)124-78(54(2)3)91(143)122-74(89(141)116-67(29-18-43-111-98(105)106)83(135)114-65(81(100)133)27-16-41-109-96(101)102)52-148-149-53-75(123-84(136)68(30-19-44-112-99(107)108)115-82(134)66(113-56(5)129)28-17-42-110-97(103)104)95(147)127-46-40-64(62-25-14-9-15-26-62)80(127)93(145)119-70(47-57-21-10-7-11-22-57)85(137)117-71(87(139)125-79)48-58-32-36-61(37-33-58)60-23-12-8-13-24-60/h7-15,21-26,32-39,54-55,64-76,78-80,128,130H,6,16-20,27-31,40-53H2,1-5H3,(H2,100,133)(H,113,129)(H,114,135)(H,115,134)(H,116,141)(H,117,137)(H,118,140)(H,119,145)(H,120,138)(H,121,144)(H,122,143)(H,123,136)(H,124,142)(H,125,139)(H,131,132)(H4,101,102,109)(H4,103,104,110)(H4,105,106,111)(H4,107,108,112)/t55-,64+,65-,66-,67-,68-,69-,70-,71-,72-,73-,74-,75-,76-,78-,79-,80-/m0/s1

$$$$

     RDKit          2D

 37 43  0  0  0  0  0  0  0  0999 V2000
   -4.8664   15.8818    0.0000 C   0  0  0  0  0  0  0  0  0  0  0  0
   -4.5545   14.4146    0.0000 C   0  0  0  0  0  0  0  0  0  0  0  0
   -5.6692   13.4109    0.0000 C   0  0  0  0  0  0  0  0  0  0  0  0
   -7.0958   13.8744    0.0000 O   0  0  0  0  0  0  0  0  0  0  0  0
   -5.3573   11.9437    0.0000 N   0  0  0  0  0  0  0  0  0  0  0  0
   -4.0993   11.1267    0.0000 C   0  0  0  0  0  0  0  0  0  0  0  0
   -4.9163    9.8687    0.0000 C   0  0  0  0  0  0  0  0  0  0  0  0
   -5.7333    8.6107    0.0000 C   0  0  0  0  0  0  0  0  0  0  0  0
   -4.4752    7.7937    0.0000 C   0  0  0  0  0  0  0  0  0  0  0  0
   -4.1634    6.3265    0.0000 N   0  0  0  0  0  0  0  0  0  0  0  0
   -2.7931    5.7164    0.0000 N   0  0  0  0  0  0  0  0  0  0  0  0
   -2.9499    4.2246    0.0000 C   0  0  0  0  0  0  0  0  0  0  0  0
   -1.8351    3.2209    0.0000 C   0  0  0  0  0  0  0  0  0  0  0  0
   -0.4086    3.6844    0.0000 C   0  0  0  0  0  0  0  0  0  0  0  0
    0.7062    2.6807    0.0000 C   0  0  0  0  0  0  0  0  0  0  0  0
    0.3943    1.2135    0.0000 C   0  0  0  0  0  0  0  0  0  0  0  0
    1.2760    0.0000    0.0000 N   0  0  0  0  0  0  0  0  0  0  0  0
    0.3943   -1.2135    0.0000 N   0  0  0  0  0  0  0  0  0  0  0  0
   -1.0323   -0.7500    0.0000 C   0  0  0  0  0  0  0  0  0  0  0  0
   -1.0323    0.7500    0.0000 C   0  0  0  0  0  0  0  0  0  0  0  0
   -2.1470    1.7537    0.0000 C   0  0  0  0  0  0  0  0  0  0  0  0
   -4.4171    3.9127    0.0000 C   0  0  0  0  0  0  0  0  0  0  0  0
   -5.0272    2.5424    0.0000 C   0  0  0  0  0  0  0  0  0  0  0  0
   -6.5190    2.3856    0.0000 C   0  0  0  0  0  0  0  0  0  0  0  0
   -7.4006    3.5992    0.0000 Cl  0  0  0  0  0  0  0  0  0  0  0  0
   -7.1291    1.0153    0.0000 C   0  0  0  0  0  0  0  0  0  0  0  0
   -8.6209    0.8585    0.0000 C   0  0  0  0  0  0  0  0  0  0  0  0
   -6.2474   -0.1982    0.0000 C   0  0  0  0  0  0  0  0  0  0  0  0
   -4.7556   -0.0414    0.0000 C   0  0  0  0  0  0  0  0  0  0  0  0
   -3.6409   -1.0451    0.0000 N   0  0  0  0  0  0  0  0  0  0  0  0
   -2.3419   -0.2951    0.0000 N   0  0  0  0  0  0  0  0  0  0  0  0
   -2.6537    1.1721    0.0000 C   0  0  0  0  0  0  0  0  0  0  0  0
   -4.1455    1.3289    0.0000 C   0  0  0  0  0  0  0  0  0  0  0  0
   -5.1671    5.2118    0.0000 C   0  0  0  0  0  0  0  0  0  0  0  0
   -6.6589    5.3686    0.0000 C   0  0  0  0  0  0  0  0  0  0  0  0
   -3.6583    9.0517    0.0000 C   0  0  0  0  0  0  0  0  0  0  0  0
   -6.1743   10.6856    0.0000 C   0  0  0  0  0  0  0  0  0  0  0  0
  1  2  2  0
  2  3  1  0
  3  4  2  0
  3  5  1  0
  5  6  1  0
  6  7  1  0
  7  8  1  0
  8  9  1  0
  9 10  1  0
 10 11  1  0
 11 12  2  0
 12 13  1  0
 13 14  2  0
 14 15  1  0
 15 16  2  0
 16 17  1  0
 17 18  1  0
 18 19  2  0
 19 20  1  0
 20 21  2  0
 12 22  1  0
 22 23  1  0
 23 24  2  0
 24 25  1  0
 24 26  1  0
 26 27  1  0
 26 28  2  0
 28 29  1  0
 29 30  1  0
 30 31  1  0
 31 32  2  0
 32 33  1  0
 22 34  2  0
 34 35  1  0
  9 36  1  0
  7 37  1  0
 37  5  1  0
 36  7  1  0
 34 10  1  0
 21 13  1  0
 33 23  1  0
 20 16  1  0
 33 29  2  0
M  END
>  <molecule_chembl_id>  (308) 
CHEMBL5287837

>  <canonical_smiles>  (308) 
C=CC(=O)N1CC2(CC(n3nc(-c4ccc5[nH]ncc5c4)c(-c4c(Cl)c(C)cc5[nH]ncc45)c3C)C2)C1

>  <pchembl_value_mean>  (308) 
7.7

>  <inchi>  (308) 
InChI=1S/C28H26ClN7O/c1-4-23(37)35-13-28(14-35)9-19(10-28)36-16(3)24(25-20-12-31-33-22(20)7-15(2)26(25)29)27(34-36)17-5-6-21-18(8-17)11-30-32-21/h4-8,11-12,19H,1,9-10,13-14H2,2-3H3,(H,30,32)(H,31,33)

$$$$

     RDKit          2D

 40 46  0  0  0  0  0  0  0  0999 V2000
    5.2500   -1.2990    0.0000 C   0  0  0  0  0  0  0  0  0  0  0  0
    3.7500   -1.2990    0.0000 C   0  0  0  0  0  0  0  0  0  0  0  0
    3.0000    0.0000    0.0000 C   0  0  0  0  0  0  0  0  0  0  0  0
    3.7500    1.2990    0.0000 O   0  0  0  0  0  0  0  0  0  0  0  0
    1.5000    0.0000    0.0000 N   0  0  0  0  0  0  0  0  0  0  0  0
    0.7500   -1.2990    0.0000 C   0  0  0  0  0  0  0  0  0  0  0  0
   -0.7500   -1.2990    0.0000 C   0  0  0  0  0  0  0  0  0  0  0  0
   -1.5000    0.0000    0.0000 N   0  0  0  0  0  0  0  0  0  0  0  0
   -2.9832   -0.2236    0.0000 C   0  0  0  0  0  0  0  0  0  0  0  0
   -3.3170   -1.6860    0.0000 N   0  0  0  0  0  0  0  0  0  0  0  0
   -4.7504   -2.1281    0.0000 C   0  0  0  0  0  0  0  0  0  0  0  0
   -5.0842   -3.5905    0.0000 N   0  0  0  0  0  0  0  0  0  0  0  0
   -6.3543   -4.3885    0.0000 C   0  0  0  0  0  0  0  0  0  0  0  0
   -5.5562   -5.6586    0.0000 C   0  0  0  0  0  0  0  0  0  0  0  0
   -5.8900   -7.1210    0.0000 N   0  0  0  0  0  0  0  0  0  0  0  0
   -7.3233   -7.5631    0.0000 C   0  0  0  0  0  0  0  0  0  0  0  0
   -4.7904   -8.1413    0.0000 C   0  0  0  0  0  0  0  0  0  0  0  0
   -4.2861   -4.8606    0.0000 C   0  0  0  0  0  0  0  0  0  0  0  0
   -5.8500   -1.1078    0.0000 N   0  0  0  0  0  0  0  0  0  0  0  0
   -5.5162    0.3546    0.0000 C   0  0  0  0  0  0  0  0  0  0  0  0
   -6.7634    1.1965    0.0000 C   0  0  0  0  0  0  0  0  0  0  0  0
   -6.5398    2.6797    0.0000 C   0  0  0  0  0  0  0  0  0  0  0  0
   -7.7125    3.6150    0.0000 C   0  0  0  0  0  0  0  0  0  0  0  0
   -7.4890    5.0982    0.0000 C   0  0  0  0  0  0  0  0  0  0  0  0
   -6.0927    5.6462    0.0000 C   0  0  0  0  0  0  0  0  0  0  0  0
   -8.6617    6.0334    0.0000 C   0  0  0  0  0  0  0  0  0  0  0  0
  -10.0580    5.4854    0.0000 C   0  0  0  0  0  0  0  0  0  0  0  0
  -10.2816    4.0022    0.0000 C   0  0  0  0  0  0  0  0  0  0  0  0
  -11.5335    3.1758    0.0000 N   0  0  0  0  0  0  0  0  0  0  0  0
  -11.1344    1.7299    0.0000 N   0  0  0  0  0  0  0  0  0  0  0  0
   -9.6359    1.6626    0.0000 C   0  0  0  0  0  0  0  0  0  0  0  0
   -9.1088    3.0669    0.0000 C   0  0  0  0  0  0  0  0  0  0  0  0
   -5.1435    3.2277    0.0000 C   0  0  0  0  0  0  0  0  0  0  0  0
   -4.9199    4.7110    0.0000 Cl  0  0  0  0  0  0  0  0  0  0  0  0
   -3.9707    2.2925    0.0000 C   0  0  0  0  0  0  0  0  0  0  0  0
   -4.0828    0.7967    0.0000 C   0  0  0  0  0  0  0  0  0  0  0  0
   -2.7314    3.1375    0.0000 O   0  0  0  0  0  0  0  0  0  0  0  0
   -1.2980    2.6953    0.0000 C   0  0  0  0  0  0  0  0  0  0  0  0
   -0.7500    1.2990    0.0000 C   0  0  0  0  0  0  0  0  0  0  0  0
    0.7500    1.2990    0.0000 C   0  0  0  0  0  0  0  0  0  0  0  0
  1  2  2  0
  2  3  1  0
  3  4  2  0
  3  5  1  0
  5  6  1  0
  6  7  1  0
  7  8  1  0
  8  9  1  0
  9 10  1  0
 10 11  2  0
 11 12  1  0
 12 13  1  0
 13 14  1  0
 14 15  1  0
 15 16  1  0
 15 17  1  0
 14 18  1  0
 11 19  1  0
 19 20  2  0
 20 21  1  0
 21 22  2  0
 22 23  1  0
 23 24  2  0
 24 25  1  0
 24 26  1  0
 26 27  2  0
 27 28  1  0
 28 29  1  0
 29 30  1  0
 30 31  2  0
 31 32  1  0
 22 33  1  0
 33 34  1  0
 33 35  2  0
 35 36  1  0
 35 37  1  0
 37 38  1  0
 39 38  1  6
 39 40  1  0
 40  5  1  0
 39  8  1  0
 36  9  2  0
 18 12  1  0
 36 20  1  0
 32 23  1  0
 32 28  2  0
M  END
>  <molecule_chembl_id>  (309) 
CHEMBL4443236

>  <canonical_smiles>  (309) 
C=CC(=O)N1CCN2c3nc(N4CC(N(C)C)C4)nc4cc(-c5c(C)ccc6[nH]ncc56)c(Cl)c(c34)OC[C@@H]2C1

>  <pchembl_value_mean>  (309) 
7.7

>  <inchi>  (309) 
InChI=1S/C29H31ClN8O2/c1-5-23(39)36-8-9-38-18(14-36)15-40-27-25-22(32-29(33-28(25)38)37-12-17(13-37)35(3)4)10-19(26(27)30)24-16(2)6-7-21-20(24)11-31-34-21/h5-7,10-11,17-18H,1,8-9,12-15H2,2-4H3,(H,31,34)/t18-/m0/s1

$$$$

     RDKit          2D

 34 39  0  0  0  0  0  0  0  0999 V2000
  -12.1677   -7.0526    0.0000 C   0  0  0  0  0  0  0  0  0  0  0  0
  -11.2860   -5.8390    0.0000 C   0  0  0  0  0  0  0  0  0  0  0  0
   -9.7942   -5.9958    0.0000 C   0  0  0  0  0  0  0  0  0  0  0  0
   -9.1841   -7.3662    0.0000 O   0  0  0  0  0  0  0  0  0  0  0  0
   -8.9126   -4.7823    0.0000 N   0  0  0  0  0  0  0  0  0  0  0  0
   -9.1472   -3.3008    0.0000 C   0  0  0  0  0  0  0  0  0  0  0  0
   -7.6657   -3.0661    0.0000 C   0  0  0  0  0  0  0  0  0  0  0  0
   -6.1841   -2.8315    0.0000 C   0  0  0  0  0  0  0  0  0  0  0  0
   -6.4188   -1.3499    0.0000 C   0  0  0  0  0  0  0  0  0  0  0  0
   -5.5371   -0.1364    0.0000 N   0  0  0  0  0  0  0  0  0  0  0  0
   -6.0006    1.2902    0.0000 N   0  0  0  0  0  0  0  0  0  0  0  0
   -4.7871    2.1718    0.0000 C   0  0  0  0  0  0  0  0  0  0  0  0
   -4.7871    3.6718    0.0000 C   0  0  0  0  0  0  0  0  0  0  0  0
   -3.4881    4.4218    0.0000 C   0  0  0  0  0  0  0  0  0  0  0  0
   -3.4881    5.9218    0.0000 C   0  0  0  0  0  0  0  0  0  0  0  0
   -4.7871    6.6718    0.0000 C   0  0  0  0  0  0  0  0  0  0  0  0
   -6.0862    5.9218    0.0000 C   0  0  0  0  0  0  0  0  0  0  0  0
   -6.0862    4.4218    0.0000 C   0  0  0  0  0  0  0  0  0  0  0  0
   -3.5736    1.2902    0.0000 C   0  0  0  0  0  0  0  0  0  0  0  0
   -2.1470    1.7537    0.0000 C   0  0  0  0  0  0  0  0  0  0  0  0
   -1.0323    0.7500    0.0000 C   0  0  0  0  0  0  0  0  0  0  0  0
   -1.3442   -0.7172    0.0000 Cl  0  0  0  0  0  0  0  0  0  0  0  0
    0.3943    1.2135    0.0000 C   0  0  0  0  0  0  0  0  0  0  0  0
    1.5090    0.2098    0.0000 C   0  0  0  0  0  0  0  0  0  0  0  0
    0.7062    2.6807    0.0000 C   0  0  0  0  0  0  0  0  0  0  0  0
   -0.4086    3.6844    0.0000 C   0  0  0  0  0  0  0  0  0  0  0  0
   -0.4086    5.1844    0.0000 N   0  0  0  0  0  0  0  0  0  0  0  0
   -1.8351    5.6480    0.0000 N   0  0  0  0  0  0  0  0  0  0  0  0
   -2.7168    4.4344    0.0000 C   0  0  0  0  0  0  0  0  0  0  0  0
   -1.8351    3.2209    0.0000 C   0  0  0  0  0  0  0  0  0  0  0  0
   -4.0371   -0.1364    0.0000 C   0  0  0  0  0  0  0  0  0  0  0  0
   -3.1554   -1.3499    0.0000 C   0  0  0  0  0  0  0  0  0  0  0  0
   -7.9003   -1.5846    0.0000 C   0  0  0  0  0  0  0  0  0  0  0  0
   -7.4310   -4.5477    0.0000 C   0  0  0  0  0  0  0  0  0  0  0  0
  1  2  2  0
  2  3  1  0
  3  4  2  0
  3  5  1  0
  5  6  1  0
  6  7  1  0
  7  8  1  0
  8  9  1  0
  9 10  1  0
 10 11  1  0
 11 12  2  0
 12 13  1  0
 13 14  2  0
 14 15  1  0
 15 16  2  0
 16 17  1  0
 17 18  2  0
 12 19  1  0
 19 20  1  0
 20 21  2  0
 21 22  1  0
 21 23  1  0
 23 24  1  0
 23 25  2  0
 25 26  1  0
 26 27  1  0
 27 28  1  0
 28 29  2  0
 29 30  1  0
 19 31  2  0
 31 32  1  0
  9 33  1  0
  7 34  1  0
 34  5  1  0
 33  7  1  0
 31 10  1  0
 18 13  1  0
 30 20  1  0
 30 26  2  0
M  END
>  <molecule_chembl_id>  (310) 
CHEMBL5272753

>  <canonical_smiles>  (310) 
C=CC(=O)N1CC2(CC(n3nc(-c4ccccc4)c(-c4c(Cl)c(C)cc5[nH]ncc45)c3C)C2)C1

>  <pchembl_value_mean>  (310) 
7.7

>  <inchi>  (310) 
InChI=1S/C27H26ClN5O/c1-4-22(34)32-14-27(15-32)11-19(12-27)33-17(3)23(26(31-33)18-8-6-5-7-9-18)24-20-13-29-30-21(20)10-16(2)25(24)28/h4-10,13,19H,1,11-12,14-15H2,2-3H3,(H,29,30)

$$$$

     RDKit          2D

 30 33  0  0  0  0  0  0  0  0999 V2000
   -4.9574   -7.9649    0.0000 C   0  0  0  0  0  0  0  0  0  0  0  0
   -3.7181   -7.1199    0.0000 C   0  0  0  0  0  0  0  0  0  0  0  0
   -2.4787   -6.2750    0.0000 C   0  0  0  0  0  0  0  0  0  0  0  0
   -2.5908   -4.7792    0.0000 C   0  0  0  0  0  0  0  0  0  0  0  0
   -1.3515   -3.9342    0.0000 C   0  0  0  0  0  0  0  0  0  0  0  0
   -0.0000   -4.5850    0.0000 C   0  0  0  0  0  0  0  0  0  0  0  0
    0.1121   -6.0808    0.0000 C   0  0  0  0  0  0  0  0  0  0  0  0
    1.4635   -6.7316    0.0000 F   0  0  0  0  0  0  0  0  0  0  0  0
   -1.1273   -6.9258    0.0000 C   0  0  0  0  0  0  0  0  0  0  0  0
   -1.0152   -8.4216    0.0000 C   0  0  0  0  0  0  0  0  0  0  0  0
   -2.2545   -9.2666    0.0000 C   0  0  0  0  0  0  0  0  0  0  0  0
   -3.6060   -8.6157    0.0000 O   0  0  0  0  0  0  0  0  0  0  0  0
   -2.1424  -10.7624    0.0000 C   0  0  0  0  0  0  0  0  0  0  0  0
   -0.7910  -11.4132    0.0000 C   0  0  0  0  0  0  0  0  0  0  0  0
    0.4484  -10.5682    0.0000 C   0  0  0  0  0  0  0  0  0  0  0  0
    0.3363   -9.0724    0.0000 C   0  0  0  0  0  0  0  0  0  0  0  0
    1.5756   -8.2274    0.0000 Cl  0  0  0  0  0  0  0  0  0  0  0  0
    1.3515   -3.9342    0.0000 O   0  0  0  0  0  0  0  0  0  0  0  0
    1.6852   -2.4718    0.0000 C   0  0  0  0  0  0  0  0  0  0  0  0
    0.7500   -1.2990    0.0000 C   0  0  0  0  0  0  0  0  0  0  0  0
    1.5000    0.0000    0.0000 C   0  0  0  0  0  0  0  0  0  0  0  0
    0.7500    1.2990    0.0000 N   0  0  0  0  0  0  0  0  0  0  0  0
    1.5000    2.5981    0.0000 C   0  0  0  0  0  0  0  0  0  0  0  0
    0.7500    3.8971    0.0000 O   0  0  0  0  0  0  0  0  0  0  0  0
    3.0000    2.5981    0.0000 C   0  0  0  0  0  0  0  0  0  0  0  0
    3.7500    3.8971    0.0000 C   0  0  0  0  0  0  0  0  0  0  0  0
   -0.7500    1.2990    0.0000 C   0  0  0  0  0  0  0  0  0  0  0  0
   -1.5000    0.0000    0.0000 C   0  0  0  0  0  0  0  0  0  0  0  0
   -0.7500   -1.2990    0.0000 N   0  0  0  0  0  0  0  0  0  0  0  0
   -1.6852   -2.4718    0.0000 C   0  0  0  0  0  0  0  0  0  0  0  0
  1  2  3  0
  2  3  1  0
  3  4  2  0
  4  5  1  0
  5  6  2  0
  6  7  1  0
  7  8  1  0
  7  9  2  0
  9 10  1  0
 10 11  2  0
 11 12  1  0
 11 13  1  0
 13 14  2  0
 14 15  1  0
 15 16  2  0
 16 17  1  0
  6 18  1  0
 18 19  1  0
 20 19  1  6
 20 21  1  0
 21 22  1  0
 22 23  1  0
 23 24  2  0
 23 25  1  0
 25 26  2  0
 22 27  1  0
 27 28  1  0
 28 29  1  0
 29 30  1  0
  9  3  1  0
 16 10  1  0
 29 20  1  0
 30  5  1  0
M  END
>  <molecule_chembl_id>  (311) 
CHEMBL5431111

>  <canonical_smiles>  (311) 
C#Cc1cc2c(c(F)c1-c1c(O)cccc1Cl)OC[C@H]1CN(C(=O)C=C)CCN1C2

>  <pchembl_value_mean>  (311) 
7.72

>  <inchi>  (311) 
InChI=1S/C23H20ClFN2O3/c1-3-14-10-15-11-26-8-9-27(19(29)4-2)12-16(26)13-30-23(15)22(25)20(14)21-17(24)6-5-7-18(21)28/h1,4-7,10,16,28H,2,8-9,11-13H2/t16-/m1/s1

$$$$

     RDKit          2D

 49 55  0  0  0  0  0  0  0  0999 V2000
    2.0490   -4.6471    0.0000 H   0  0  0  0  0  0  0  0  0  0  0  0
    0.7500   -3.8971    0.0000 C   0  0  0  0  0  0  0  0  0  0  0  0
   -0.5490   -3.1471    0.0000 H   0  0  0  0  0  0  0  0  0  0  0  0
    1.5000   -2.5981    0.0000 O   0  0  0  0  0  0  0  0  0  0  0  0
    0.7500   -1.2990    0.0000 C   0  0  0  0  0  0  0  0  0  0  0  0
    1.5000    0.0000    0.0000 N   0  0  0  0  0  0  0  0  0  0  0  0
    0.7500    1.2990    0.0000 C   0  0  0  0  0  0  0  0  0  0  0  0
    1.5000    2.5981    0.0000 N   0  0  0  0  0  0  0  0  0  0  0  0
    3.0000    2.5981    0.0000 C   0  0  0  0  0  0  0  0  0  0  0  0
    3.7500    3.8971    0.0000 C   0  0  0  0  0  0  0  0  0  0  0  0
    2.4510    4.6471    0.0000 N   0  0  0  0  0  0  0  0  0  0  0  0
    2.4510    6.1471    0.0000 C   0  0  0  0  0  0  0  0  0  0  0  0
    1.1519    3.8971    0.0000 C   0  0  0  0  0  0  0  0  0  0  0  0
    5.0490    3.1471    0.0000 C   0  0  0  0  0  0  0  0  0  0  0  0
    5.7990    4.4462    0.0000 C   0  0  0  0  0  0  0  0  0  0  0  0
    4.5000    5.1962    0.0000 C   0  0  0  0  0  0  0  0  0  0  0  0
   -0.7500    1.2990    0.0000 C   0  0  0  0  0  0  0  0  0  0  0  0
   -1.5000    2.5981    0.0000 C   0  0  0  0  0  0  0  0  0  0  0  0
   -3.0000    2.5981    0.0000 N   0  0  0  0  0  0  0  0  0  0  0  0
   -3.7500    1.2990    0.0000 C   0  0  0  0  0  0  0  0  0  0  0  0
   -5.2500    1.2990    0.0000 C   0  0  0  0  0  0  0  0  0  0  0  0
   -6.0000   -0.0000    0.0000 C   0  0  0  0  0  0  0  0  0  0  0  0
   -7.5000   -0.0000    0.0000 C   0  0  0  0  0  0  0  0  0  0  0  0
   -8.2500   -1.2990    0.0000 O   0  0  0  0  0  0  0  0  0  0  0  0
   -8.2500    1.2990    0.0000 C   0  0  0  0  0  0  0  0  0  0  0  0
   -7.5000    2.5981    0.0000 C   0  0  0  0  0  0  0  0  0  0  0  0
   -8.2500    3.8971    0.0000 C   0  0  0  0  0  0  0  0  0  0  0  0
   -7.5000    5.1962    0.0000 C   0  0  0  0  0  0  0  0  0  0  0  0
   -6.0000    5.1962    0.0000 C   0  0  0  0  0  0  0  0  0  0  0  0
   -5.2500    6.4952    0.0000 F   0  0  0  0  0  0  0  0  0  0  0  0
   -5.2500    3.8971    0.0000 C   0  0  0  0  0  0  0  0  0  0  0  0
   -3.7500    3.8971    0.0000 C   0  0  0  0  0  0  0  0  0  0  0  0
   -2.2500    3.8971    0.0000 C   0  0  0  0  0  0  0  0  0  0  0  0
   -6.0000    2.5981    0.0000 C   0  0  0  0  0  0  0  0  0  0  0  0
   -3.0000    0.0000    0.0000 C   0  0  0  0  0  0  0  0  0  0  0  0
   -3.7500   -1.2990    0.0000 F   0  0  0  0  0  0  0  0  0  0  0  0
   -1.5000    0.0000    0.0000 C   0  0  0  0  0  0  0  0  0  0  0  0
   -0.7500   -1.2990    0.0000 N   0  0  0  0  0  0  0  0  0  0  0  0
   -0.0000   -5.1962    0.0000 C   0  0  0  0  0  0  0  0  0  0  0  0
    1.4672   -5.5080    0.0000 C   0  0  0  0  0  0  0  0  0  0  0  0
    1.6240   -6.9998    0.0000 C   0  0  0  0  0  0  0  0  0  0  0  0
    0.2537   -7.6099    0.0000 C   0  0  0  0  0  0  0  0  0  0  0  0
   -0.7500   -6.4952    0.0000 N   0  0  0  0  0  0  0  0  0  0  0  0
   -2.2172   -6.1833    0.0000 C   0  0  0  0  0  0  0  0  0  0  0  0
   -2.3740   -4.6915    0.0000 C   0  0  0  0  0  0  0  0  0  0  0  0
   -3.6731   -3.9415    0.0000 C   0  0  0  0  0  0  0  0  0  0  0  0
   -4.9721   -4.6915    0.0000 F   0  0  0  0  0  0  0  0  0  0  0  0
   -3.6731   -2.4415    0.0000 F   0  0  0  0  0  0  0  0  0  0  0  0
   -1.0037   -4.0814    0.0000 C   0  0  0  0  0  0  0  0  0  0  0  0
  1  2  1  0
  2  3  1  0
  2  4  1  0
  4  5  1  0
  5  6  2  0
  6  7  1  0
  7  8  1  0
  8  9  1  0
  9 10  1  0
 10 11  1  0
 11 12  1  0
 11 13  1  0
 10 14  1  0
 14 15  1  0
 15 16  1  0
  7 17  2  0
 17 18  1  0
 18 19  2  0
 19 20  1  0
 20 21  1  0
 21 22  2  0
 22 23  1  0
 23 24  1  0
 23 25  2  0
 25 26  1  0
 26 27  2  0
 27 28  1  0
 28 29  2  0
 29 30  1  0
 29 31  1  0
 31 32  1  0
 32 33  3  0
 31 34  2  0
 20 35  2  0
 35 36  1  0
 35 37  1  0
 37 38  2  0
  2 39  1  0
 39 40  1  0
 40 41  1  0
 41 42  1  0
 42 43  1  0
 43 44  1  0
 44 45  1  0
 45 46  2  0
 46 47  1  0
 46 48  1  0
 45 49  1  0
 38  5  1  0
 43 39  1  0
 16 10  1  0
 37 17  1  0
 49 39  1  0
 34 21  1  0
 34 26  1  0
M  ISO  2   1   2   3   2
M  END
>  <molecule_chembl_id>  (312) 
CHEMBL5434863

>  <canonical_smiles>  (312) 
[2H]C([2H])(Oc1nc(NCC2(N(C)C)CCC2)c2cnc(-c3cc(O)cc4ccc(F)c(C#C)c34)c(F)c2n1)C12CCCN1CC(=C(F)F)C2

>  <pchembl_value_mean>  (312) 
7.73

>  <inchi>  (312) 
InChI=1S/C35H34F4N6O2/c1-4-23-26(36)8-7-20-13-22(46)14-24(27(20)23)29-28(37)30-25(16-40-29)32(41-18-34(44(2)3)9-5-10-34)43-33(42-30)47-19-35-11-6-12-45(35)17-21(15-35)31(38)39/h1,7-8,13-14,16,46H,5-6,9-12,15,17-19H2,2-3H3,(H,41,42,43)/i19D2

$$$$

     RDKit          2D

 34 38  0  0  0  0  0  0  0  0999 V2000
    5.2500   -1.2990    0.0000 C   0  0  0  0  0  0  0  0  0  0  0  0
    3.7500   -1.2990    0.0000 C   0  0  0  0  0  0  0  0  0  0  0  0
    3.0000    0.0000    0.0000 C   0  0  0  0  0  0  0  0  0  0  0  0
    3.7500    1.2990    0.0000 O   0  0  0  0  0  0  0  0  0  0  0  0
    1.5000    0.0000    0.0000 N   0  0  0  0  0  0  0  0  0  0  0  0
    0.7500   -1.2990    0.0000 C   0  0  0  0  0  0  0  0  0  0  0  0
   -0.7500   -1.2990    0.0000 C   0  0  0  0  0  0  0  0  0  0  0  0
   -1.5000    0.0000    0.0000 N   0  0  0  0  0  0  0  0  0  0  0  0
   -3.0000    0.0000    0.0000 C   0  0  0  0  0  0  0  0  0  0  0  0
   -3.7500    1.2990    0.0000 C   0  0  0  0  0  0  0  0  0  0  0  0
   -5.2500    1.2990    0.0000 C   0  0  0  0  0  0  0  0  0  0  0  0
   -6.0000    0.0000    0.0000 N   0  0  0  0  0  0  0  0  0  0  0  0
   -5.2500   -1.2990    0.0000 C   0  0  0  0  0  0  0  0  0  0  0  0
   -6.0000   -2.5981    0.0000 C   0  0  0  0  0  0  0  0  0  0  0  0
   -7.5000   -2.5981    0.0000 F   0  0  0  0  0  0  0  0  0  0  0  0
   -5.2500   -3.8971    0.0000 C   0  0  0  0  0  0  0  0  0  0  0  0
   -6.0000   -5.1962    0.0000 C   0  0  0  0  0  0  0  0  0  0  0  0
   -7.5000   -5.1962    0.0000 C   0  0  0  0  0  0  0  0  0  0  0  0
   -8.2500   -3.8971    0.0000 O   0  0  0  0  0  0  0  0  0  0  0  0
   -8.2500   -6.4952    0.0000 C   0  0  0  0  0  0  0  0  0  0  0  0
   -7.5000   -7.7942    0.0000 C   0  0  0  0  0  0  0  0  0  0  0  0
   -6.0000   -7.7942    0.0000 C   0  0  0  0  0  0  0  0  0  0  0  0
   -5.2500   -6.4952    0.0000 C   0  0  0  0  0  0  0  0  0  0  0  0
   -3.7500   -6.4952    0.0000 F   0  0  0  0  0  0  0  0  0  0  0  0
   -3.7500   -3.8971    0.0000 C   0  0  0  0  0  0  0  0  0  0  0  0
   -3.0000   -5.1962    0.0000 Cl  0  0  0  0  0  0  0  0  0  0  0  0
   -3.0000   -2.5981    0.0000 C   0  0  0  0  0  0  0  0  0  0  0  0
   -3.7500   -1.2990    0.0000 C   0  0  0  0  0  0  0  0  0  0  0  0
   -3.0000    2.5981    0.0000 N   0  0  0  0  0  0  0  0  0  0  0  0
   -3.7500    3.8971    0.0000 C   0  0  0  0  0  0  0  0  0  0  0  0
   -1.5000    2.5981    0.0000 C   0  0  0  0  0  0  0  0  0  0  0  0
   -0.7500    3.8971    0.0000 O   0  0  0  0  0  0  0  0  0  0  0  0
   -0.7500    1.2990    0.0000 C   0  0  0  0  0  0  0  0  0  0  0  0
    0.7500    1.2990    0.0000 C   0  0  0  0  0  0  0  0  0  0  0  0
  1  2  2  0
  2  3  1  0
  3  4  2  0
  3  5  1  0
  5  6  1  0
  6  7  1  0
  7  8  1  0
  8  9  1  0
  9 10  2  0
 10 11  1  0
 11 12  2  0
 12 13  1  0
 13 14  2  0
 14 15  1  0
 14 16  1  0
 16 17  1  0
 17 18  2  0
 18 19  1  0
 18 20  1  0
 20 21  2  0
 21 22  1  0
 22 23  2  0
 23 24  1  0
 16 25  2  0
 25 26  1  0
 25 27  1  0
 27 28  2  0
 10 29  1  0
 29 30  1  0
 29 31  1  0
 31 32  2  0
 31 33  1  0
 33 34  1  1
 34  5  1  0
 33  8  1  0
 28  9  1  0
 28 13  1  0
 23 17  1  0
M  END
>  <molecule_chembl_id>  (313) 
CHEMBL4452974

>  <canonical_smiles>  (313) 
C=CC(=O)N1CCN2c3c(cnc4c(F)c(-c5c(O)cccc5F)c(Cl)cc34)N(C)C(=O)[C@H]2C1

>  <pchembl_value_mean>  (313) 
7.75

>  <inchi>  (313) 
InChI=1S/C24H19ClF2N4O3/c1-3-18(33)30-7-8-31-16(11-30)24(34)29(2)15-10-28-22-12(23(15)31)9-13(25)19(21(22)27)20-14(26)5-4-6-17(20)32/h3-6,9-10,16,32H,1,7-8,11H2,2H3/t16-/m1/s1

$$$$

     RDKit          2D

 39 44  0  0  0  0  0  0  0  0999 V2000
    5.2500   -1.2990    0.0000 C   0  0  0  0  0  0  0  0  0  0  0  0
    3.7500   -1.2990    0.0000 C   0  0  0  0  0  0  0  0  0  0  0  0
    3.0000    0.0000    0.0000 C   0  0  0  0  0  0  0  0  0  0  0  0
    3.7500    1.2990    0.0000 O   0  0  0  0  0  0  0  0  0  0  0  0
    1.5000    0.0000    0.0000 N   0  0  0  0  0  0  0  0  0  0  0  0
    0.7500   -1.2990    0.0000 C   0  0  0  0  0  0  0  0  0  0  0  0
   -0.7500   -1.2990    0.0000 C   0  0  0  0  0  0  0  0  0  0  0  0
   -1.5000    0.0000    0.0000 N   0  0  0  0  0  0  0  0  0  0  0  0
   -2.9832   -0.2236    0.0000 C   0  0  0  0  0  0  0  0  0  0  0  0
   -3.3170   -1.6860    0.0000 N   0  0  0  0  0  0  0  0  0  0  0  0
   -4.7504   -2.1281    0.0000 C   0  0  0  0  0  0  0  0  0  0  0  0
   -5.0842   -3.5905    0.0000 N   0  0  0  0  0  0  0  0  0  0  0  0
   -6.5175   -4.0326    0.0000 C   0  0  0  0  0  0  0  0  0  0  0  0
   -6.8513   -5.4950    0.0000 C   0  0  0  0  0  0  0  0  0  0  0  0
   -8.2847   -5.9371    0.0000 N   0  0  0  0  0  0  0  0  0  0  0  0
   -8.6184   -7.3995    0.0000 C   0  0  0  0  0  0  0  0  0  0  0  0
   -9.3842   -4.9169    0.0000 C   0  0  0  0  0  0  0  0  0  0  0  0
   -5.8500   -1.1078    0.0000 N   0  0  0  0  0  0  0  0  0  0  0  0
   -5.5162    0.3546    0.0000 C   0  0  0  0  0  0  0  0  0  0  0  0
   -6.7634    1.1965    0.0000 C   0  0  0  0  0  0  0  0  0  0  0  0
   -6.5398    2.6797    0.0000 C   0  0  0  0  0  0  0  0  0  0  0  0
   -7.7125    3.6150    0.0000 C   0  0  0  0  0  0  0  0  0  0  0  0
   -7.4890    5.0982    0.0000 C   0  0  0  0  0  0  0  0  0  0  0  0
   -6.0927    5.6462    0.0000 C   0  0  0  0  0  0  0  0  0  0  0  0
   -8.6617    6.0334    0.0000 C   0  0  0  0  0  0  0  0  0  0  0  0
  -10.0580    5.4854    0.0000 C   0  0  0  0  0  0  0  0  0  0  0  0
  -10.2816    4.0022    0.0000 C   0  0  0  0  0  0  0  0  0  0  0  0
  -11.5335    3.1758    0.0000 N   0  0  0  0  0  0  0  0  0  0  0  0
  -11.1344    1.7299    0.0000 N   0  0  0  0  0  0  0  0  0  0  0  0
   -9.6359    1.6626    0.0000 C   0  0  0  0  0  0  0  0  0  0  0  0
   -9.1088    3.0669    0.0000 C   0  0  0  0  0  0  0  0  0  0  0  0
   -5.1435    3.2277    0.0000 C   0  0  0  0  0  0  0  0  0  0  0  0
   -4.9199    4.7110    0.0000 Cl  0  0  0  0  0  0  0  0  0  0  0  0
   -3.9707    2.2925    0.0000 C   0  0  0  0  0  0  0  0  0  0  0  0
   -4.0828    0.7967    0.0000 C   0  0  0  0  0  0  0  0  0  0  0  0
   -2.7314    3.1375    0.0000 O   0  0  0  0  0  0  0  0  0  0  0  0
   -1.2980    2.6953    0.0000 C   0  0  0  0  0  0  0  0  0  0  0  0
   -0.7500    1.2990    0.0000 C   0  0  0  0  0  0  0  0  0  0  0  0
    0.7500    1.2990    0.0000 C   0  0  0  0  0  0  0  0  0  0  0  0
  1  2  2  0
  2  3  1  0
  3  4  2  0
  3  5  1  0
  5  6  1  0
  6  7  1  0
  7  8  1  0
  8  9  1  0
  9 10  1  0
 10 11  2  0
 11 12  1  0
 12 13  1  0
 13 14  1  0
 14 15  1  0
 15 16  1  0
 15 17  1  0
 11 18  1  0
 18 19  2  0
 19 20  1  0
 20 21  2  0
 21 22  1  0
 22 23  2  0
 23 24  1  0
 23 25  1  0
 25 26  2  0
 26 27  1  0
 27 28  1  0
 28 29  1  0
 29 30  2  0
 30 31  1  0
 21 32  1  0
 32 33  1  0
 32 34  2  0
 34 35  1  0
 34 36  1  0
 36 37  1  0
 38 37  1  6
 38 39  1  0
 39  5  1  0
 38  8  1  0
 35  9  2  0
 35 19  1  0
 31 22  1  0
 31 27  2  0
M  END
>  <molecule_chembl_id>  (314) 
CHEMBL4566835

>  <canonical_smiles>  (314) 
C=CC(=O)N1CCN2c3nc(NCCN(C)C)nc4cc(-c5c(C)ccc6[nH]ncc56)c(Cl)c(c34)OC[C@@H]2C1

>  <pchembl_value_mean>  (314) 
7.75

>  <inchi>  (314) 
InChI=1S/C28H31ClN8O2/c1-5-22(38)36-10-11-37-17(14-36)15-39-26-24-21(32-28(33-27(24)37)30-8-9-35(3)4)12-18(25(26)29)23-16(2)6-7-20-19(23)13-31-34-20/h5-7,12-13,17H,1,8-11,14-15H2,2-4H3,(H,31,34)(H,30,32,33)/t17-/m0/s1

$$$$

     RDKit          2D

 48 55  0  0  0  0  0  0  0  0999 V2000
    2.0490   -4.6471    0.0000 H   0  0  0  0  0  0  0  0  0  0  0  0
    0.7500   -3.8971    0.0000 C   0  0  0  0  0  0  0  0  0  0  0  0
   -0.5490   -3.1471    0.0000 H   0  0  0  0  0  0  0  0  0  0  0  0
    1.5000   -2.5981    0.0000 O   0  0  0  0  0  0  0  0  0  0  0  0
    0.7500   -1.2990    0.0000 C   0  0  0  0  0  0  0  0  0  0  0  0
    1.5000    0.0000    0.0000 N   0  0  0  0  0  0  0  0  0  0  0  0
    0.7500    1.2990    0.0000 C   0  0  0  0  0  0  0  0  0  0  0  0
    1.5000    2.5981    0.0000 N   0  0  0  0  0  0  0  0  0  0  0  0
    3.0000    2.5981    0.0000 C   0  0  0  0  0  0  0  0  0  0  0  0
    3.7500    3.8971    0.0000 C   0  0  0  0  0  0  0  0  0  0  0  0
    4.0619    5.3643    0.0000 C   0  0  0  0  0  0  0  0  0  0  0  0
    2.7628    6.1143    0.0000 C   0  0  0  0  0  0  0  0  0  0  0  0
    1.6481    5.1106    0.0000 C   0  0  0  0  0  0  0  0  0  0  0  0
    0.7500    3.8971    0.0000 C   0  0  0  0  0  0  0  0  0  0  0  0
    2.2582    3.7403    0.0000 N   0  0  0  0  0  0  0  0  0  0  0  0
   -0.7500    1.2990    0.0000 C   0  0  0  0  0  0  0  0  0  0  0  0
   -1.5000    2.5981    0.0000 C   0  0  0  0  0  0  0  0  0  0  0  0
   -3.0000    2.5981    0.0000 N   0  0  0  0  0  0  0  0  0  0  0  0
   -3.7500    1.2990    0.0000 C   0  0  0  0  0  0  0  0  0  0  0  0
   -5.2500    1.2990    0.0000 C   0  0  0  0  0  0  0  0  0  0  0  0
   -6.0000   -0.0000    0.0000 C   0  0  0  0  0  0  0  0  0  0  0  0
   -7.5000   -0.0000    0.0000 C   0  0  0  0  0  0  0  0  0  0  0  0
   -8.2500   -1.2990    0.0000 N   0  0  0  0  0  0  0  0  0  0  0  0
   -8.2500    1.2990    0.0000 C   0  0  0  0  0  0  0  0  0  0  0  0
   -7.5000    2.5981    0.0000 C   0  0  0  0  0  0  0  0  0  0  0  0
   -8.2500    3.8971    0.0000 C   0  0  0  0  0  0  0  0  0  0  0  0
   -7.5000    5.1962    0.0000 C   0  0  0  0  0  0  0  0  0  0  0  0
   -6.0000    5.1962    0.0000 C   0  0  0  0  0  0  0  0  0  0  0  0
   -5.2500    6.4952    0.0000 F   0  0  0  0  0  0  0  0  0  0  0  0
   -5.2500    3.8971    0.0000 C   0  0  0  0  0  0  0  0  0  0  0  0
   -3.7500    3.8971    0.0000 C   0  0  0  0  0  0  0  0  0  0  0  0
   -2.2500    3.8971    0.0000 C   0  0  0  0  0  0  0  0  0  0  0  0
   -6.0000    2.5981    0.0000 C   0  0  0  0  0  0  0  0  0  0  0  0
   -3.0000    0.0000    0.0000 C   0  0  0  0  0  0  0  0  0  0  0  0
   -3.7500   -1.2990    0.0000 F   0  0  0  0  0  0  0  0  0  0  0  0
   -1.5000    0.0000    0.0000 C   0  0  0  0  0  0  0  0  0  0  0  0
   -0.7500   -1.2990    0.0000 N   0  0  0  0  0  0  0  0  0  0  0  0
   -0.0000   -5.1962    0.0000 C   0  0  0  0  0  0  0  0  0  0  0  0
    1.4672   -5.5080    0.0000 C   0  0  0  0  0  0  0  0  0  0  0  0
    1.6240   -6.9998    0.0000 C   0  0  0  0  0  0  0  0  0  0  0  0
    0.2537   -7.6099    0.0000 C   0  0  0  0  0  0  0  0  0  0  0  0
   -0.7500   -6.4952    0.0000 N   0  0  0  0  0  0  0  0  0  0  0  0
   -2.2172   -6.1833    0.0000 C   0  0  0  0  0  0  0  0  0  0  0  0
   -2.3740   -4.6915    0.0000 C   0  0  0  0  0  0  0  0  0  0  0  0
   -3.6731   -3.9415    0.0000 C   0  0  0  0  0  0  0  0  0  0  0  0
   -4.9721   -4.6915    0.0000 F   0  0  0  0  0  0  0  0  0  0  0  0
   -3.6731   -2.4415    0.0000 F   0  0  0  0  0  0  0  0  0  0  0  0
   -1.0037   -4.0814    0.0000 C   0  0  0  0  0  0  0  0  0  0  0  0
  1  2  1  0
  2  3  1  0
  2  4  1  0
  4  5  1  0
  5  6  2  0
  6  7  1  0
  7  8  1  0
  8  9  1  0
 10  9  1  6
 10 11  1  0
 11 12  1  0
 13 12  1  6
 13 14  1  0
 13 15  1  0
  7 16  2  0
 16 17  1  0
 17 18  2  0
 18 19  1  0
 19 20  1  0
 20 21  2  0
 21 22  1  0
 22 23  1  0
 22 24  2  0
 24 25  1  0
 25 26  2  0
 26 27  1  0
 27 28  2  0
 28 29  1  0
 28 30  1  0
 30 31  1  0
 31 32  3  0
 30 33  2  0
 19 34  2  0
 34 35  1  0
 34 36  1  0
 36 37  2  0
  2 38  1  0
 38 39  1  0
 39 40  1  0
 40 41  1  0
 41 42  1  0
 42 43  1  0
 43 44  1  0
 44 45  2  0
 45 46  1  0
 45 47  1  0
 44 48  1  0
 37  5  1  0
 42 38  1  0
 14  8  1  0
 36 16  1  0
 48 38  1  0
 15 10  1  0
 33 20  1  0
 33 25  1  0
M  ISO  2   1   2   3   2
M  END
>  <molecule_chembl_id>  (315) 
CHEMBL5398447

>  <canonical_smiles>  (315) 
[2H]C([2H])(Oc1nc(N2C[C@H]3CC[C@@H](C2)N3)c2cnc(-c3cc(N)cc4ccc(F)c(C#C)c34)c(F)c2n1)C12CCCN1CC(=C(F)F)C2

>  <pchembl_value_mean>  (315) 
7.78

>  <inchi>  (315) 
InChI=1S/C34H31F4N7O/c1-2-23-26(35)7-4-18-10-20(39)11-24(27(18)23)29-28(36)30-25(13-40-29)32(44-15-21-5-6-22(16-44)41-21)43-33(42-30)46-17-34-8-3-9-45(34)14-19(12-34)31(37)38/h1,4,7,10-11,13,21-22,41H,3,5-6,8-9,12,14-17,39H2/t21-,22+,34?/i17D2

$$$$

     RDKit          2D

 32 36  0  0  0  0  0  0  0  0999 V2000
    5.2500   -1.2990    0.0000 C   0  0  0  0  0  0  0  0  0  0  0  0
    3.7500   -1.2990    0.0000 C   0  0  0  0  0  0  0  0  0  0  0  0
    3.0000    0.0000    0.0000 C   0  0  0  0  0  0  0  0  0  0  0  0
    3.7500    1.2990    0.0000 O   0  0  0  0  0  0  0  0  0  0  0  0
    1.5000    0.0000    0.0000 N   0  0  0  0  0  0  0  0  0  0  0  0
    0.7500   -1.2990    0.0000 C   0  0  0  0  0  0  0  0  0  0  0  0
   -0.7500   -1.2990    0.0000 C   0  0  0  0  0  0  0  0  0  0  0  0
   -1.5000    0.0000    0.0000 N   0  0  0  0  0  0  0  0  0  0  0  0
   -3.0000    0.0000    0.0000 C   0  0  0  0  0  0  0  0  0  0  0  0
   -3.7500    1.2990    0.0000 C   0  0  0  0  0  0  0  0  0  0  0  0
   -5.2500    1.2990    0.0000 C   0  0  0  0  0  0  0  0  0  0  0  0
   -6.0000    0.0000    0.0000 N   0  0  0  0  0  0  0  0  0  0  0  0
   -5.2500   -1.2990    0.0000 C   0  0  0  0  0  0  0  0  0  0  0  0
   -6.0000   -2.5981    0.0000 C   0  0  0  0  0  0  0  0  0  0  0  0
   -7.5000   -2.5981    0.0000 F   0  0  0  0  0  0  0  0  0  0  0  0
   -5.2500   -3.8971    0.0000 C   0  0  0  0  0  0  0  0  0  0  0  0
   -6.0000   -5.1962    0.0000 C   0  0  0  0  0  0  0  0  0  0  0  0
   -7.5000   -5.1962    0.0000 C   0  0  0  0  0  0  0  0  0  0  0  0
   -8.2500   -3.8971    0.0000 O   0  0  0  0  0  0  0  0  0  0  0  0
   -8.2500   -6.4952    0.0000 C   0  0  0  0  0  0  0  0  0  0  0  0
   -7.5000   -7.7942    0.0000 C   0  0  0  0  0  0  0  0  0  0  0  0
   -6.0000   -7.7942    0.0000 C   0  0  0  0  0  0  0  0  0  0  0  0
   -5.2500   -6.4952    0.0000 C   0  0  0  0  0  0  0  0  0  0  0  0
   -3.7500   -6.4952    0.0000 F   0  0  0  0  0  0  0  0  0  0  0  0
   -3.7500   -3.8971    0.0000 C   0  0  0  0  0  0  0  0  0  0  0  0
   -3.0000   -5.1962    0.0000 Cl  0  0  0  0  0  0  0  0  0  0  0  0
   -3.0000   -2.5981    0.0000 C   0  0  0  0  0  0  0  0  0  0  0  0
   -3.7500   -1.2990    0.0000 C   0  0  0  0  0  0  0  0  0  0  0  0
   -3.0000    2.5981    0.0000 O   0  0  0  0  0  0  0  0  0  0  0  0
   -1.5000    2.5981    0.0000 C   0  0  0  0  0  0  0  0  0  0  0  0
   -0.7500    1.2990    0.0000 C   0  0  0  0  0  0  0  0  0  0  0  0
    0.7500    1.2990    0.0000 C   0  0  0  0  0  0  0  0  0  0  0  0
  1  2  2  0
  2  3  1  0
  3  4  2  0
  3  5  1  0
  5  6  1  0
  6  7  1  0
  7  8  1  0
  8  9  1  0
  9 10  2  0
 10 11  1  0
 11 12  2  0
 12 13  1  0
 13 14  2  0
 14 15  1  0
 14 16  1  0
 16 17  1  0
 17 18  2  0
 18 19  1  0
 18 20  1  0
 20 21  2  0
 21 22  1  0
 22 23  2  0
 23 24  1  0
 16 25  2  0
 25 26  1  0
 25 27  1  0
 27 28  2  0
 10 29  1  0
 29 30  1  0
 31 30  1  1
 31 32  1  0
 32  5  1  0
 31  8  1  0
 28  9  1  0
 28 13  1  0
 23 17  1  0
M  END
>  <molecule_chembl_id>  (316) 
CHEMBL4591572

>  <canonical_smiles>  (316) 
C=CC(=O)N1CCN2c3c(cnc4c(F)c(-c5c(O)cccc5F)c(Cl)cc34)OC[C@H]2C1

>  <pchembl_value_mean>  (316) 
7.8

>  <inchi>  (316) 
InChI=1S/C23H18ClF2N3O3/c1-2-18(31)28-6-7-29-12(10-28)11-32-17-9-27-22-13(23(17)29)8-14(24)19(21(22)26)20-15(25)4-3-5-16(20)30/h2-5,8-9,12,30H,1,6-7,10-11H2/t12-/m1/s1

$$$$

     RDKit          2D

 30 32  0  0  0  0  0  0  0  0999 V2000
    3.7500   -1.2990    0.0000 C   0  0  0  0  0  0  0  0  0  0  0  0
    3.0000    0.0000    0.0000 N   0  0  0  0  0  0  0  0  0  0  0  0
    1.5000    0.0000    0.0000 C   0  0  0  0  0  0  0  0  0  0  0  0
    0.7500   -1.2990    0.0000 N   0  0  0  0  0  0  0  0  0  0  0  0
   -0.7500   -1.2990    0.0000 C   0  0  0  0  0  0  0  0  0  0  0  0
   -1.5000    0.0000    0.0000 C   0  0  0  0  0  0  0  0  0  0  0  0
   -3.0000    0.0000    0.0000 C   0  0  0  0  0  0  0  0  0  0  0  0
   -3.7500    1.2990    0.0000 C   0  0  0  0  0  0  0  0  0  0  0  0
   -5.2500    1.2990    0.0000 C   0  0  0  0  0  0  0  0  0  0  0  0
   -6.0000    2.5981    0.0000 C   0  0  0  0  0  0  0  0  0  0  0  0
   -7.5000    2.5981    0.0000 C   0  0  0  0  0  0  0  0  0  0  0  0
   -8.2500    3.8971    0.0000 N   0  0  0  0  0  0  0  0  0  0  0  0
   -7.5000    5.1962    0.0000 C   0  0  0  0  0  0  0  0  0  0  0  0
   -6.0000    5.1962    0.0000 O   0  0  0  0  0  0  0  0  0  0  0  0
   -8.2500    6.4952    0.0000 N   0  0  0  0  0  0  0  0  0  0  0  0
   -7.5000    7.7942    0.0000 C   0  0  0  0  0  0  0  0  0  0  0  0
   -8.2500    9.0933    0.0000 C   0  0  0  0  0  0  0  0  0  0  0  0
   -7.5000   10.3923    0.0000 C   0  0  0  0  0  0  0  0  0  0  0  0
   -8.7990   11.1423    0.0000 C   0  0  0  0  0  0  0  0  0  0  0  0
   -6.2010    9.6423    0.0000 C   0  0  0  0  0  0  0  0  0  0  0  0
   -6.7500   11.6913    0.0000 C   0  0  0  0  0  0  0  0  0  0  0  0
   -8.2500    1.2990    0.0000 C   0  0  0  0  0  0  0  0  0  0  0  0
   -9.7500    1.2990    0.0000 F   0  0  0  0  0  0  0  0  0  0  0  0
   -7.5000    0.0000    0.0000 C   0  0  0  0  0  0  0  0  0  0  0  0
   -6.0000    0.0000    0.0000 C   0  0  0  0  0  0  0  0  0  0  0  0
   -5.2500   -1.2990    0.0000 C   0  0  0  0  0  0  0  0  0  0  0  0
   -3.0000    2.5981    0.0000 C   0  0  0  0  0  0  0  0  0  0  0  0
   -1.5000    2.5981    0.0000 N   0  0  0  0  0  0  0  0  0  0  0  0
   -0.7500    1.2990    0.0000 C   0  0  0  0  0  0  0  0  0  0  0  0
    0.7500    1.2990    0.0000 N   0  0  0  0  0  0  0  0  0  0  0  0
  1  2  1  0
  2  3  1  0
  3  4  2  0
  4  5  1  0
  5  6  2  0
  6  7  1  0
  7  8  2  0
  8  9  1  0
  9 10  2  0
 10 11  1  0
 11 12  1  0
 12 13  1  0
 13 14  2  0
 13 15  1  0
 15 16  1  0
 16 17  1  0
 17 18  1  0
 18 19  1  0
 18 20  1  0
 18 21  1  0
 11 22  2  0
 22 23  1  0
 22 24  1  0
 24 25  2  0
 25 26  1  0
  8 27  1  0
 27 28  2  0
 28 29  1  0
 29 30  2  0
 30  3  1  0
 29  6  1  0
 25  9  1  0
M  END
>  <molecule_chembl_id>  (317) 
CHEMBL3577123

>  <canonical_smiles>  (317) 
CNc1ncc2cc(-c3cc(NC(=O)NCCC(C)(C)C)c(F)cc3C)cnc2n1

>  <pchembl_value_mean>  (317) 
7.8

>  <inchi>  (317) 
InChI=1S/C22H27FN6O/c1-13-8-17(23)18(28-21(30)25-7-6-22(2,3)4)10-16(13)14-9-15-12-27-20(24-5)29-19(15)26-11-14/h8-12H,6-7H2,1-5H3,(H2,25,28,30)(H,24,26,27,29)

$$$$

     RDKit          2D

 31 34  0  0  0  0  0  0  0  0999 V2000
    5.2500   -1.2990    0.0000 C   0  0  0  0  0  0  0  0  0  0  0  0
    3.7500   -1.2990    0.0000 C   0  0  0  0  0  0  0  0  0  0  0  0
    3.0000    0.0000    0.0000 C   0  0  0  0  0  0  0  0  0  0  0  0
    3.7500    1.2990    0.0000 O   0  0  0  0  0  0  0  0  0  0  0  0
    1.5000    0.0000    0.0000 N   0  0  0  0  0  0  0  0  0  0  0  0
    0.7500   -1.2990    0.0000 C   0  0  0  0  0  0  0  0  0  0  0  0
   -0.7500   -1.2990    0.0000 C   0  0  0  0  0  0  0  0  0  0  0  0
   -1.5000    0.0000    0.0000 N   0  0  0  0  0  0  0  0  0  0  0  0
   -2.9832   -0.2236    0.0000 C   0  0  0  0  0  0  0  0  0  0  0  0
   -4.0828    0.7967    0.0000 C   0  0  0  0  0  0  0  0  0  0  0  0
   -5.4343    0.1459    0.0000 C   0  0  0  0  0  0  0  0  0  0  0  0
   -6.6736    0.9909    0.0000 C   0  0  0  0  0  0  0  0  0  0  0  0
   -8.0251    0.3400    0.0000 C   0  0  0  0  0  0  0  0  0  0  0  0
   -9.3765   -0.3108    0.0000 C   0  0  0  0  0  0  0  0  0  0  0  0
  -10.7280   -0.9616    0.0000 C   0  0  0  0  0  0  0  0  0  0  0  0
   -6.5615    2.4867    0.0000 C   0  0  0  0  0  0  0  0  0  0  0  0
   -7.8009    3.3316    0.0000 C   0  0  0  0  0  0  0  0  0  0  0  0
   -7.6888    4.8274    0.0000 C   0  0  0  0  0  0  0  0  0  0  0  0
   -6.3374    5.4783    0.0000 O   0  0  0  0  0  0  0  0  0  0  0  0
   -8.9282    5.6724    0.0000 C   0  0  0  0  0  0  0  0  0  0  0  0
  -10.2796    5.0216    0.0000 C   0  0  0  0  0  0  0  0  0  0  0  0
  -10.3917    3.5258    0.0000 C   0  0  0  0  0  0  0  0  0  0  0  0
   -9.1524    2.6808    0.0000 C   0  0  0  0  0  0  0  0  0  0  0  0
   -9.2644    1.1850    0.0000 Cl  0  0  0  0  0  0  0  0  0  0  0  0
   -5.2101    3.1375    0.0000 C   0  0  0  0  0  0  0  0  0  0  0  0
   -5.0980    4.6333    0.0000 F   0  0  0  0  0  0  0  0  0  0  0  0
   -3.9707    2.2925    0.0000 C   0  0  0  0  0  0  0  0  0  0  0  0
   -2.7314    3.1375    0.0000 O   0  0  0  0  0  0  0  0  0  0  0  0
   -1.2980    2.6953    0.0000 C   0  0  0  0  0  0  0  0  0  0  0  0
   -0.7500    1.2990    0.0000 C   0  0  0  0  0  0  0  0  0  0  0  0
    0.7500    1.2990    0.0000 C   0  0  0  0  0  0  0  0  0  0  0  0
  1  2  2  0
  2  3  1  0
  3  4  2  0
  3  5  1  0
  5  6  1  0
  6  7  1  0
  7  8  1  0
  8  9  1  0
  9 10  1  0
 10 11  2  0
 11 12  1  0
 12 13  1  0
 13 14  3  0
 14 15  1  0
 12 16  2  0
 16 17  1  0
 17 18  2  0
 18 19  1  0
 18 20  1  0
 20 21  2  0
 21 22  1  0
 22 23  2  0
 23 24  1  0
 16 25  1  0
 25 26  1  0
 25 27  2  0
 27 28  1  0
 28 29  1  0
 30 29  1  1
 30 31  1  0
 31  5  1  0
 30  8  1  0
 27 10  1  0
 23 17  1  0
M  END
>  <molecule_chembl_id>  (318) 
CHEMBL5417514

>  <canonical_smiles>  (318) 
C=CC(=O)N1CCN2Cc3cc(C#CC)c(-c4c(O)cccc4Cl)c(F)c3OC[C@H]2C1

>  <pchembl_value_mean>  (318) 
7.82

>  <inchi>  (318) 
InChI=1S/C24H22ClFN2O3/c1-3-6-15-11-16-12-27-9-10-28(20(30)4-2)13-17(27)14-31-24(16)23(26)21(15)22-18(25)7-5-8-19(22)29/h4-5,7-8,11,17,29H,2,9-10,12-14H2,1H3/t17-/m1/s1

$$$$

     RDKit          2D

 40 47  0  0  0  0  0  0  0  0999 V2000
   -1.5000   -5.1962    0.0000 O   0  0  0  0  0  0  0  0  0  0  0  0
   -0.7500   -3.8971    0.0000 C   0  0  0  0  0  0  0  0  0  0  0  0
    0.7500   -3.8971    0.0000 C   0  0  0  0  0  0  0  0  0  0  0  0
    1.5000   -2.5981    0.0000 C   0  0  0  0  0  0  0  0  0  0  0  0
    3.0000   -2.5981    0.0000 N   0  0  0  0  0  0  0  0  0  0  0  0
    3.7500   -1.2990    0.0000 C   0  0  0  0  0  0  0  0  0  0  0  0
    5.2500   -1.2990    0.0000 C   0  0  0  0  0  0  0  0  0  0  0  0
    6.0000   -2.5981    0.0000 C   0  0  0  0  0  0  0  0  0  0  0  0
    5.2500   -3.8971    0.0000 C   0  0  0  0  0  0  0  0  0  0  0  0
    6.0000   -5.1962    0.0000 N   0  0  0  0  0  0  0  0  0  0  0  0
    7.5000   -5.1962    0.0000 C   0  0  0  0  0  0  0  0  0  0  0  0
    8.2500   -6.4952    0.0000 O   0  0  0  0  0  0  0  0  0  0  0  0
    7.5000   -7.7942    0.0000 C   0  0  0  0  0  0  0  0  0  0  0  0
    8.2500   -9.0933    0.0000 C   0  0  0  0  0  0  0  0  0  0  0  0
    9.2537   -7.9785    0.0000 C   0  0  0  0  0  0  0  0  0  0  0  0
   10.6240   -8.5887    0.0000 C   0  0  0  0  0  0  0  0  0  0  0  0
   10.4672  -10.0804    0.0000 C   0  0  0  0  0  0  0  0  0  0  0  0
    9.0000  -10.3923    0.0000 N   0  0  0  0  0  0  0  0  0  0  0  0
    7.9963  -11.5070    0.0000 C   0  0  0  0  0  0  0  0  0  0  0  0
    6.6260  -10.8969    0.0000 C   0  0  0  0  0  0  0  0  0  0  0  0
    6.7828   -9.4051    0.0000 C   0  0  0  0  0  0  0  0  0  0  0  0
    8.2500   -3.8971    0.0000 N   0  0  0  0  0  0  0  0  0  0  0  0
    7.5000   -2.5981    0.0000 C   0  0  0  0  0  0  0  0  0  0  0  0
    8.2500   -1.2990    0.0000 N   0  0  0  0  0  0  0  0  0  0  0  0
    9.7500   -1.2990    0.0000 C   0  0  0  0  0  0  0  0  0  0  0  0
   10.5000    0.0000    0.0000 C   0  0  0  0  0  0  0  0  0  0  0  0
   10.8119    1.4672    0.0000 C   0  0  0  0  0  0  0  0  0  0  0  0
    9.5128    2.2172    0.0000 C   0  0  0  0  0  0  0  0  0  0  0  0
    8.3981    1.2135    0.0000 C   0  0  0  0  0  0  0  0  0  0  0  0
    7.5000    0.0000    0.0000 C   0  0  0  0  0  0  0  0  0  0  0  0
    9.0082   -0.1568    0.0000 N   0  0  0  0  0  0  0  0  0  0  0  0
    3.7500   -3.8971    0.0000 C   0  0  0  0  0  0  0  0  0  0  0  0
    0.7500   -1.2990    0.0000 C   0  0  0  0  0  0  0  0  0  0  0  0
    1.5000    0.0000    0.0000 C   0  0  0  0  0  0  0  0  0  0  0  0
    3.0000    0.0000    0.0000 Cl  0  0  0  0  0  0  0  0  0  0  0  0
    0.7500    1.2990    0.0000 C   0  0  0  0  0  0  0  0  0  0  0  0
   -0.7500    1.2990    0.0000 C   0  0  0  0  0  0  0  0  0  0  0  0
   -1.5000    0.0000    0.0000 C   0  0  0  0  0  0  0  0  0  0  0  0
   -0.7500   -1.2990    0.0000 C   0  0  0  0  0  0  0  0  0  0  0  0
   -1.5000   -2.5981    0.0000 C   0  0  0  0  0  0  0  0  0  0  0  0
  1  2  1  0
  2  3  2  0
  3  4  1  0
  4  5  1  0
  5  6  1  0
  6  7  1  0
  7  8  1  0
  8  9  2  0
  9 10  1  0
 10 11  2  0
 11 12  1  0
 12 13  1  0
 13 14  1  0
 14 15  1  0
 15 16  1  0
 16 17  1  0
 17 18  1  0
 18 19  1  0
 19 20  1  0
 20 21  1  0
 11 22  1  0
 22 23  2  0
 23 24  1  0
 24 25  1  0
 25 26  1  0
 26 27  1  0
 27 28  1  0
 28 29  1  0
 29 30  1  0
 29 31  1  0
  9 32  1  0
  4 33  2  0
 33 34  1  0
 34 35  1  0
 34 36  2  0
 36 37  1  0
 37 38  2  0
 38 39  1  0
 39 40  2  0
 40  2  1  0
 32  5  1  0
 39 33  1  0
 23  8  1  0
 30 24  1  0
 18 14  1  0
 31 26  1  0
 21 14  1  0
M  END
>  <molecule_chembl_id>  (319) 
CHEMBL5406644

>  <canonical_smiles>  (319) 
Oc1cc(N2CCc3c(nc(OCC45CCCN4CCC5)nc3N3CC4CCC(C3)N4)C2)c2c(Cl)cccc2c1

>  <pchembl_value_mean>  (319) 
7.82

>  <inchi>  (319) 
InChI=1S/C31H37ClN6O2/c32-25-5-1-4-20-14-23(39)15-27(28(20)25)36-13-8-24-26(18-36)34-30(40-19-31-9-2-11-38(31)12-3-10-31)35-29(24)37-16-21-6-7-22(17-37)33-21/h1,4-5,14-15,21-22,33,39H,2-3,6-13,16-19H2

$$$$

     RDKit          2D

 41 46  0  0  0  0  0  0  0  0999 V2000
    9.7500   -3.8971    0.0000 C   0  0  0  0  0  0  0  0  0  0  0  0
    8.2500   -3.8971    0.0000 C   0  0  0  0  0  0  0  0  0  0  0  0
    7.5000   -2.5981    0.0000 C   0  0  0  0  0  0  0  0  0  0  0  0
    8.2500   -1.2990    0.0000 O   0  0  0  0  0  0  0  0  0  0  0  0
    6.0000   -2.5981    0.0000 N   0  0  0  0  0  0  0  0  0  0  0  0
    5.2500   -3.8971    0.0000 C   0  0  0  0  0  0  0  0  0  0  0  0
    3.7500   -3.8971    0.0000 C   0  0  0  0  0  0  0  0  0  0  0  0
    3.0000   -2.5981    0.0000 N   0  0  0  0  0  0  0  0  0  0  0  0
    1.5000   -2.5981    0.0000 C   0  0  0  0  0  0  0  0  0  0  0  0
    0.7500   -3.8971    0.0000 N   0  0  0  0  0  0  0  0  0  0  0  0
   -0.7500   -3.8971    0.0000 C   0  0  0  0  0  0  0  0  0  0  0  0
   -1.5000   -5.1962    0.0000 O   0  0  0  0  0  0  0  0  0  0  0  0
   -3.0000   -5.1962    0.0000 C   0  0  0  0  0  0  0  0  0  0  0  0
   -3.7500   -6.4952    0.0000 C   0  0  0  0  0  0  0  0  0  0  0  0
   -3.1399   -7.8655    0.0000 C   0  0  0  0  0  0  0  0  0  0  0  0
   -4.2546   -8.8692    0.0000 C   0  0  0  0  0  0  0  0  0  0  0  0
   -5.5537   -8.1192    0.0000 C   0  0  0  0  0  0  0  0  0  0  0  0
   -5.2418   -6.6520    0.0000 N   0  0  0  0  0  0  0  0  0  0  0  0
   -6.2455   -5.5373    0.0000 C   0  0  0  0  0  0  0  0  0  0  0  0
   -1.5000   -2.5981    0.0000 N   0  0  0  0  0  0  0  0  0  0  0  0
   -0.7500   -1.2990    0.0000 C   0  0  0  0  0  0  0  0  0  0  0  0
    0.7500   -1.2990    0.0000 C   0  0  0  0  0  0  0  0  0  0  0  0
    1.5000    0.0000    0.0000 C   0  0  0  0  0  0  0  0  0  0  0  0
    0.7500    1.2990    0.0000 C   0  0  0  0  0  0  0  0  0  0  0  0
   -0.7500    1.2990    0.0000 N   0  0  0  0  0  0  0  0  0  0  0  0
   -1.5000    2.5981    0.0000 C   0  0  0  0  0  0  0  0  0  0  0  0
   -3.0000    2.5981    0.0000 C   0  0  0  0  0  0  0  0  0  0  0  0
   -3.7500    3.8971    0.0000 C   0  0  0  0  0  0  0  0  0  0  0  0
   -3.0000    5.1962    0.0000 C   0  0  0  0  0  0  0  0  0  0  0  0
   -1.5000    5.1962    0.0000 C   0  0  0  0  0  0  0  0  0  0  0  0
   -0.7500    6.4952    0.0000 C   0  0  0  0  0  0  0  0  0  0  0  0
    0.7500    6.4952    0.0000 C   0  0  0  0  0  0  0  0  0  0  0  0
    1.5000    5.1962    0.0000 C   0  0  0  0  0  0  0  0  0  0  0  0
    0.7500    3.8971    0.0000 C   0  0  0  0  0  0  0  0  0  0  0  0
   -0.7500    3.8971    0.0000 C   0  0  0  0  0  0  0  0  0  0  0  0
   -1.5000    0.0000    0.0000 C   0  0  0  0  0  0  0  0  0  0  0  0
    3.7500   -1.2990    0.0000 C   0  0  0  0  0  0  0  0  0  0  0  0
    5.2500   -1.2990    0.0000 C   0  0  0  0  0  0  0  0  0  0  0  0
    6.0000   -0.0000    0.0000 C   0  0  0  0  0  0  0  0  0  0  0  0
    5.2500    1.2990    0.0000 C   0  0  0  0  0  0  0  0  0  0  0  0
    4.5000    2.5981    0.0000 N   0  0  0  0  0  0  0  0  0  0  0  0
  1  2  2  0
  2  3  1  0
  3  4  2  0
  3  5  1  0
  5  6  1  0
  6  7  1  0
  7  8  1  0
  8  9  1  0
  9 10  2  0
 10 11  1  0
 11 12  1  0
 12 13  1  0
 14 13  1  6
 14 15  1  0
 15 16  1  0
 16 17  1  0
 17 18  1  0
 18 19  1  0
 11 20  2  0
 20 21  1  0
 21 22  2  0
 22 23  1  0
 23 24  1  0
 24 25  1  0
 25 26  1  0
 26 27  2  0
 27 28  1  0
 28 29  2  0
 29 30  1  0
 30 31  2  0
 31 32  1  0
 32 33  2  0
 33 34  1  0
 34 35  2  0
 25 36  1  0
  8 37  1  0
 37 38  1  0
 38 39  1  0
 39 40  1  0
 40 41  3  0
 38  5  1  0
 22  9  1  0
 35 26  1  0
 18 14  1  0
 36 21  1  0
 35 30  1  0
M  END
>  <molecule_chembl_id>  (320) 
CHEMBL4648056

>  <canonical_smiles>  (320) 
C=CC(=O)N1CCN(c2nc(OC[C@@H]3CCCN3C)nc3c2CCN(c2cccc4ccccc24)C3)CC1CC#N

>  <pchembl_value_mean>  (320) 
7.85

>  <inchi>  (320) 
InChI=1S/C32H37N7O2/c1-3-30(40)39-19-18-38(20-24(39)13-15-33)31-27-14-17-37(29-12-6-9-23-8-4-5-11-26(23)29)21-28(27)34-32(35-31)41-22-25-10-7-16-36(25)2/h3-6,8-9,11-12,24-25H,1,7,10,13-14,16-22H2,2H3/t24?,25-/m0/s1

$$$$

     RDKit          2D

 45 52  0  0  0  0  0  0  0  0999 V2000
   -0.2796  -14.2769    0.0000 C   0  0  0  0  0  0  0  0  0  0  0  0
   -0.1228  -12.7852    0.0000 C   0  0  0  0  0  0  0  0  0  0  0  0
    1.2476  -12.1751    0.0000 C   0  0  0  0  0  0  0  0  0  0  0  0
    2.4611  -13.0567    0.0000 O   0  0  0  0  0  0  0  0  0  0  0  0
    1.4043  -10.6833    0.0000 N   0  0  0  0  0  0  0  0  0  0  0  0
    0.4604   -9.5176    0.0000 C   0  0  0  0  0  0  0  0  0  0  0  0
    1.6261   -8.5736    0.0000 C   0  0  0  0  0  0  0  0  0  0  0  0
    2.7918   -7.6296    0.0000 C   0  0  0  0  0  0  0  0  0  0  0  0
    1.8478   -6.4639    0.0000 C   0  0  0  0  0  0  0  0  0  0  0  0
    2.0046   -4.9721    0.0000 N   0  0  0  0  0  0  0  0  0  0  0  0
    0.8899   -3.9684    0.0000 N   0  0  0  0  0  0  0  0  0  0  0  0
    1.5000   -2.5981    0.0000 C   0  0  0  0  0  0  0  0  0  0  0  0
    0.7500   -1.2990    0.0000 C   0  0  0  0  0  0  0  0  0  0  0  0
    1.5000    0.0000    0.0000 C   0  0  0  0  0  0  0  0  0  0  0  0
    0.7500    1.2990    0.0000 C   0  0  0  0  0  0  0  0  0  0  0  0
   -0.7500    1.2990    0.0000 C   0  0  0  0  0  0  0  0  0  0  0  0
   -1.5000    0.0000    0.0000 C   0  0  0  0  0  0  0  0  0  0  0  0
   -2.9672    0.3119    0.0000 C   0  0  0  0  0  0  0  0  0  0  0  0
   -3.1240    1.8037    0.0000 N   0  0  0  0  0  0  0  0  0  0  0  0
   -1.7537    2.4138    0.0000 N   0  0  0  0  0  0  0  0  0  0  0  0
   -1.4418    3.8810    0.0000 C   0  0  0  0  0  0  0  0  0  0  0  0
   -2.5565    4.8847    0.0000 C   0  0  0  0  0  0  0  0  0  0  0  0
   -2.2447    6.3519    0.0000 N   0  0  0  0  0  0  0  0  0  0  0  0
   -3.2484    7.4666    0.0000 C   0  0  0  0  0  0  0  0  0  0  0  0
   -2.4984    8.7656    0.0000 C   0  0  0  0  0  0  0  0  0  0  0  0
   -1.0312    8.4538    0.0000 C   0  0  0  0  0  0  0  0  0  0  0  0
    0.0836    9.4575    0.0000 F   0  0  0  0  0  0  0  0  0  0  0  0
   -0.8744    6.9620    0.0000 C   0  0  0  0  0  0  0  0  0  0  0  0
   -0.7500   -1.2990    0.0000 C   0  0  0  0  0  0  0  0  0  0  0  0
    2.9918   -2.7549    0.0000 C   0  0  0  0  0  0  0  0  0  0  0  0
    3.9955   -1.6402    0.0000 C   0  0  0  0  0  0  0  0  0  0  0  0
    5.4627   -1.9520    0.0000 C   0  0  0  0  0  0  0  0  0  0  0  0
    5.9262   -3.3786    0.0000 Cl  0  0  0  0  0  0  0  0  0  0  0  0
    6.4664   -0.8373    0.0000 C   0  0  0  0  0  0  0  0  0  0  0  0
    7.9336   -1.1492    0.0000 C   0  0  0  0  0  0  0  0  0  0  0  0
    6.0029    0.5893    0.0000 C   0  0  0  0  0  0  0  0  0  0  0  0
    4.5356    0.9012    0.0000 C   0  0  0  0  0  0  0  0  0  0  0  0
    3.7856    2.2002    0.0000 N   0  0  0  0  0  0  0  0  0  0  0  0
    2.3184    1.8883    0.0000 N   0  0  0  0  0  0  0  0  0  0  0  0
    2.1616    0.3965    0.0000 C   0  0  0  0  0  0  0  0  0  0  0  0
    3.5320   -0.2136    0.0000 C   0  0  0  0  0  0  0  0  0  0  0  0
    3.3037   -4.2221    0.0000 C   0  0  0  0  0  0  0  0  0  0  0  0
    4.6740   -4.8322    0.0000 C   0  0  0  0  0  0  0  0  0  0  0  0
    0.6821   -7.4079    0.0000 C   0  0  0  0  0  0  0  0  0  0  0  0
    2.5701   -9.7393    0.0000 C   0  0  0  0  0  0  0  0  0  0  0  0
  1  2  2  0
  2  3  1  0
  3  4  2  0
  3  5  1  0
  5  6  1  0
  6  7  1  0
  7  8  1  0
  8  9  1  0
  9 10  1  0
 10 11  1  0
 11 12  2  0
 12 13  1  0
 13 14  2  0
 14 15  1  0
 15 16  2  0
 16 17  1  0
 17 18  1  0
 18 19  2  0
 19 20  1  0
 20 21  1  0
 21 22  1  0
 22 23  1  0
 23 24  1  0
 24 25  1  0
 25 26  1  0
 26 27  1  6
 26 28  1  0
 17 29  2  0
 12 30  1  0
 30 31  1  0
 31 32  2  0
 32 33  1  0
 32 34  1  0
 34 35  1  0
 34 36  2  0
 36 37  1  0
 37 38  1  0
 38 39  1  0
 39 40  2  0
 40 41  1  0
 30 42  2  0
 42 43  1  0
  9 44  1  0
  7 45  1  0
 45  5  1  0
 44  7  1  0
 42 10  1  0
 29 13  1  0
 41 31  1  0
 20 16  1  0
 28 23  1  0
 41 37  2  0
M  END
>  <molecule_chembl_id>  (321) 
CHEMBL5083497

>  <canonical_smiles>  (321) 
C=CC(=O)N1CC2(CC(n3nc(-c4ccc5c(cnn5CCN5CC[C@H](F)C5)c4)c(-c4c(Cl)c(C)cc5[nH]ncc45)c3C)C2)C1

>  <pchembl_value_mean>  (321) 
7.85

>  <inchi>  (321) 
InChI=1S/C34H36ClFN8O/c1-4-29(45)42-18-34(19-42)13-25(14-34)44-21(3)30(31-26-16-37-39-27(26)11-20(2)32(31)35)33(40-44)22-5-6-28-23(12-22)15-38-43(28)10-9-41-8-7-24(36)17-41/h4-6,11-12,15-16,24-25H,1,7-10,13-14,17-19H2,2-3H3,(H,37,39)/t24-/m0/s1

$$$$

     RDKit          2D

 56 64  0  0  0  0  0  0  0  0999 V2000
   -9.2579   -4.1213    0.0000 C   0  0  0  0  0  0  0  0  0  0  0  0
   -8.8157   -2.6879    0.0000 C   0  0  0  0  0  0  0  0  0  0  0  0
   -9.7155   -1.4877    0.0000 C   0  0  0  0  0  0  0  0  0  0  0  0
   -8.8520   -0.2611    0.0000 N   0  0  0  0  0  0  0  0  0  0  0  0
   -8.8745    1.2387    0.0000 C   0  0  0  0  0  0  0  0  0  0  0  0
   -7.4550    1.7235    0.0000 C   0  0  0  0  0  0  0  0  0  0  0  0
   -6.5552    0.5233    0.0000 C   0  0  0  0  0  0  0  0  0  0  0  0
   -7.4187   -0.7033    0.0000 C   0  0  0  0  0  0  0  0  0  0  0  0
   -5.9853   -1.1454    0.0000 C   0  0  0  0  0  0  0  0  0  0  0  0
   -5.6515   -2.6078    0.0000 O   0  0  0  0  0  0  0  0  0  0  0  0
   -4.2182   -3.0499    0.0000 C   0  0  0  0  0  0  0  0  0  0  0  0
   -3.1186   -2.0297    0.0000 N   0  0  0  0  0  0  0  0  0  0  0  0
   -1.6852   -2.4718    0.0000 C   0  0  0  0  0  0  0  0  0  0  0  0
   -1.3515   -3.9342    0.0000 C   0  0  0  0  0  0  0  0  0  0  0  0
   -0.0000   -4.5850    0.0000 C   0  0  0  0  0  0  0  0  0  0  0  0
    0.3416   -6.0505    0.0000 C   0  0  0  0  0  0  0  0  0  0  0  0
    1.7379   -6.5985    0.0000 Cl  0  0  0  0  0  0  0  0  0  0  0  0
   -0.8312   -6.9857    0.0000 C   0  0  0  0  0  0  0  0  0  0  0  0
   -0.6076   -8.4689    0.0000 C   0  0  0  0  0  0  0  0  0  0  0  0
    0.7887   -9.0170    0.0000 N   0  0  0  0  0  0  0  0  0  0  0  0
    1.0123  -10.5002    0.0000 C   0  0  0  0  0  0  0  0  0  0  0  0
    2.4086  -11.0482    0.0000 N   0  0  0  0  0  0  0  0  0  0  0  0
   -0.1605  -11.4354    0.0000 C   0  0  0  0  0  0  0  0  0  0  0  0
   -1.5568  -10.8874    0.0000 C   0  0  0  0  0  0  0  0  0  0  0  0
   -2.7295  -11.8227    0.0000 C   0  0  0  0  0  0  0  0  0  0  0  0
   -1.7803   -9.4042    0.0000 C   0  0  0  0  0  0  0  0  0  0  0  0
   -3.1767   -8.8562    0.0000 C   0  0  0  0  0  0  0  0  0  0  0  0
   -4.5730   -8.3082    0.0000 F   0  0  0  0  0  0  0  0  0  0  0  0
   -3.7247  -10.2525    0.0000 F   0  0  0  0  0  0  0  0  0  0  0  0
   -2.6286   -7.4599    0.0000 F   0  0  0  0  0  0  0  0  0  0  0  0
   -2.2275   -6.4377    0.0000 C   0  0  0  0  0  0  0  0  0  0  0  0
   -2.4510   -4.9544    0.0000 C   0  0  0  0  0  0  0  0  0  0  0  0
   -3.8844   -4.5123    0.0000 N   0  0  0  0  0  0  0  0  0  0  0  0
    1.3515   -3.9342    0.0000 O   0  0  0  0  0  0  0  0  0  0  0  0
    1.6852   -2.4718    0.0000 C   0  0  0  0  0  0  0  0  0  0  0  0
    0.7500   -1.2990    0.0000 C   0  0  0  0  0  0  0  0  0  0  0  0
    1.5000    0.0000    0.0000 C   0  0  0  0  0  0  0  0  0  0  0  0
    0.7500    1.2990    0.0000 N   0  0  0  0  0  0  0  0  0  0  0  0
    1.5000    2.5981    0.0000 C   0  0  0  0  0  0  0  0  0  0  0  0
    0.7500    3.8971    0.0000 O   0  0  0  0  0  0  0  0  0  0  0  0
    3.0000    2.5981    0.0000 C   0  0  0  0  0  0  0  0  0  0  0  0
    3.7500    3.8971    0.0000 C   0  0  0  0  0  0  0  0  0  0  0  0
    5.2500    3.8971    0.0000 C   0  0  0  0  0  0  0  0  0  0  0  0
    6.0000    2.5981    0.0000 N   0  0  0  0  0  0  0  0  0  0  0  0
    7.5000    2.5981    0.0000 C   0  0  0  0  0  0  0  0  0  0  0  0
    8.2500    3.8971    0.0000 C   0  0  0  0  0  0  0  0  0  0  0  0
    7.5000    5.1962    0.0000 C   0  0  0  0  0  0  0  0  0  0  0  0
    6.0000    5.1962    0.0000 C   0  0  0  0  0  0  0  0  0  0  0  0
    5.2500    6.4952    0.0000 C   0  0  0  0  0  0  0  0  0  0  0  0
    6.0000    7.7942    0.0000 N   0  0  0  0  0  0  0  0  0  0  0  0
    7.5000    7.7942    0.0000 C   0  0  0  0  0  0  0  0  0  0  0  0
    8.2500    6.4952    0.0000 C   0  0  0  0  0  0  0  0  0  0  0  0
   -0.7500    1.2990    0.0000 C   0  0  0  0  0  0  0  0  0  0  0  0
   -1.5000    0.0000    0.0000 C   0  0  0  0  0  0  0  0  0  0  0  0
   -0.7500   -1.2990    0.0000 N   0  0  0  0  0  0  0  0  0  0  0  0
   -7.3962   -2.2031    0.0000 C   0  0  0  0  0  0  0  0  0  0  0  0
  1  2  2  0
  2  3  1  0
  3  4  1  0
  4  5  1  0
  5  6  1  0
  6  7  1  0
  7  8  1  0
  8  9  1  6
  9 10  1  0
 10 11  1  0
 11 12  2  0
 12 13  1  0
 13 14  2  0
 14 15  1  0
 15 16  2  0
 16 17  1  0
 16 18  1  0
 18 19  1  0
 19 20  2  0
 20 21  1  0
 21 22  1  0
 21 23  2  0
 23 24  1  0
 24 25  1  0
 24 26  2  0
 26 27  1  0
 27 28  1  0
 27 29  1  0
 27 30  1  0
 18 31  2  0
 31 32  1  0
 32 33  2  0
 15 34  1  0
 34 35  1  0
 36 35  1  1
 36 37  1  0
 37 38  1  0
 38 39  1  0
 39 40  2  0
 39 41  1  0
 41 42  2  0
 42 43  1  0
 43 44  2  0
 44 45  1  0
 45 46  2  0
 46 47  1  0
 47 48  2  0
 48 49  1  0
 49 50  1  0
 50 51  1  0
 51 52  1  0
 38 53  1  0
 53 54  1  0
 54 55  1  0
  8 56  1  0
 56  2  1  0
  8  4  1  0
 33 11  1  0
 55 36  1  0
 55 13  1  0
 32 14  1  0
 48 43  1  0
 26 19  1  0
 52 47  1  0
M  END
>  <molecule_chembl_id>  (322) 
CHEMBL5408294

>  <canonical_smiles>  (322) 
C=C1CN2CCC[C@@]2(COc2nc3c4c(c(Cl)c(-c5nc(N)cc(C)c5C(F)(F)F)cc4n2)OC[C@@H]2CN(C(=O)/C=C/c4nccc5c4CNCC5)CCN32)C1

>  <pchembl_value_mean>  (322) 
7.89

>  <inchi>  (322) 
InChI=1S/C40H41ClF3N9O3/c1-22-16-39(8-3-11-52(39)18-22)21-56-38-48-29-15-26(35-33(40(42,43)44)23(2)14-30(45)49-35)34(41)36-32(29)37(50-38)53-13-12-51(19-25(53)20-55-36)31(54)5-4-28-27-17-46-9-6-24(27)7-10-47-28/h4-5,7,10,14-15,25,46H,1,3,6,8-9,11-13,16-21H2,2H3,(H2,45,49)/b5-4+/t25-,39-/m0/s1

$$$$

     RDKit          2D

 43 50  0  0  0  0  0  0  0  0999 V2000
    5.2500   -1.2990    0.0000 C   0  0  0  0  0  0  0  0  0  0  0  0
    3.7500   -1.2990    0.0000 C   0  0  0  0  0  0  0  0  0  0  0  0
    3.0000    0.0000    0.0000 C   0  0  0  0  0  0  0  0  0  0  0  0
    3.7500    1.2990    0.0000 O   0  0  0  0  0  0  0  0  0  0  0  0
    1.5000    0.0000    0.0000 N   0  0  0  0  0  0  0  0  0  0  0  0
    0.7500   -1.2990    0.0000 C   0  0  0  0  0  0  0  0  0  0  0  0
   -0.7500   -1.2990    0.0000 C   0  0  0  0  0  0  0  0  0  0  0  0
   -1.5000    0.0000    0.0000 N   0  0  0  0  0  0  0  0  0  0  0  0
   -2.9832   -0.2236    0.0000 C   0  0  0  0  0  0  0  0  0  0  0  0
   -3.3170   -1.6860    0.0000 N   0  0  0  0  0  0  0  0  0  0  0  0
   -4.7504   -2.1281    0.0000 C   0  0  0  0  0  0  0  0  0  0  0  0
   -5.0842   -3.5905    0.0000 N   0  0  0  0  0  0  0  0  0  0  0  0
   -6.5175   -4.0326    0.0000 C   0  0  0  0  0  0  0  0  0  0  0  0
   -7.6171   -3.0124    0.0000 C   0  0  0  0  0  0  0  0  0  0  0  0
   -9.0505   -3.4545    0.0000 C   0  0  0  0  0  0  0  0  0  0  0  0
   -9.3842   -4.9169    0.0000 N   0  0  0  0  0  0  0  0  0  0  0  0
  -10.8176   -5.3590    0.0000 C   0  0  0  0  0  0  0  0  0  0  0  0
  -11.8379   -6.4586    0.0000 C   0  0  0  0  0  0  0  0  0  0  0  0
  -12.2800   -5.0252    0.0000 C   0  0  0  0  0  0  0  0  0  0  0  0
   -8.2847   -5.9371    0.0000 C   0  0  0  0  0  0  0  0  0  0  0  0
   -6.8513   -5.4950    0.0000 C   0  0  0  0  0  0  0  0  0  0  0  0
   -5.8500   -1.1078    0.0000 N   0  0  0  0  0  0  0  0  0  0  0  0
   -5.5162    0.3546    0.0000 C   0  0  0  0  0  0  0  0  0  0  0  0
   -6.7634    1.1965    0.0000 C   0  0  0  0  0  0  0  0  0  0  0  0
   -6.5398    2.6797    0.0000 C   0  0  0  0  0  0  0  0  0  0  0  0
   -7.7125    3.6150    0.0000 C   0  0  0  0  0  0  0  0  0  0  0  0
   -7.4890    5.0982    0.0000 C   0  0  0  0  0  0  0  0  0  0  0  0
   -6.0927    5.6462    0.0000 C   0  0  0  0  0  0  0  0  0  0  0  0
   -8.6617    6.0334    0.0000 C   0  0  0  0  0  0  0  0  0  0  0  0
  -10.0580    5.4854    0.0000 C   0  0  0  0  0  0  0  0  0  0  0  0
  -10.2816    4.0022    0.0000 C   0  0  0  0  0  0  0  0  0  0  0  0
  -11.5335    3.1758    0.0000 N   0  0  0  0  0  0  0  0  0  0  0  0
  -11.1344    1.7299    0.0000 N   0  0  0  0  0  0  0  0  0  0  0  0
   -9.6359    1.6626    0.0000 C   0  0  0  0  0  0  0  0  0  0  0  0
   -9.1088    3.0669    0.0000 C   0  0  0  0  0  0  0  0  0  0  0  0
   -5.1435    3.2277    0.0000 C   0  0  0  0  0  0  0  0  0  0  0  0
   -4.9199    4.7110    0.0000 Cl  0  0  0  0  0  0  0  0  0  0  0  0
   -3.9707    2.2925    0.0000 C   0  0  0  0  0  0  0  0  0  0  0  0
   -4.0828    0.7967    0.0000 C   0  0  0  0  0  0  0  0  0  0  0  0
   -2.7314    3.1375    0.0000 O   0  0  0  0  0  0  0  0  0  0  0  0
   -1.2980    2.6953    0.0000 C   0  0  0  0  0  0  0  0  0  0  0  0
   -0.7500    1.2990    0.0000 C   0  0  0  0  0  0  0  0  0  0  0  0
    0.7500    1.2990    0.0000 C   0  0  0  0  0  0  0  0  0  0  0  0
  1  2  2  0
  2  3  1  0
  3  4  2  0
  3  5  1  0
  5  6  1  0
  6  7  1  0
  7  8  1  0
  8  9  1  0
  9 10  1  0
 10 11  2  0
 11 12  1  0
 12 13  1  0
 13 14  1  0
 14 15  1  0
 15 16  1  0
 16 17  1  0
 17 18  1  0
 18 19  1  0
 16 20  1  0
 20 21  1  0
 11 22  1  0
 22 23  2  0
 23 24  1  0
 24 25  2  0
 25 26  1  0
 26 27  2  0
 27 28  1  0
 27 29  1  0
 29 30  2  0
 30 31  1  0
 31 32  1  0
 32 33  1  0
 33 34  2  0
 34 35  1  0
 25 36  1  0
 36 37  1  0
 36 38  2  0
 38 39  1  0
 38 40  1  0
 40 41  1  0
 42 41  1  6
 42 43  1  0
 43  5  1  0
 42  8  1  0
 39  9  2  0
 21 13  1  0
 39 23  1  0
 19 17  1  0
 35 26  1  0
 35 31  2  0
M  END
>  <molecule_chembl_id>  (323) 
CHEMBL4568148

>  <canonical_smiles>  (323) 
C=CC(=O)N1CCN2c3nc(NC4CCN(C5CC5)CC4)nc4cc(-c5c(C)ccc6[nH]ncc56)c(Cl)c(c34)OC[C@@H]2C1

>  <pchembl_value_mean>  (323) 
7.92

>  <inchi>  (323) 
InChI=1S/C32H35ClN8O2/c1-3-26(42)40-12-13-41-21(16-40)17-43-30-28-25(14-22(29(30)33)27-18(2)4-7-24-23(27)15-34-38-24)36-32(37-31(28)41)35-19-8-10-39(11-9-19)20-5-6-20/h3-4,7,14-15,19-21H,1,5-6,8-13,16-17H2,2H3,(H,34,38)(H,35,36,37)/t21-/m0/s1

$$$$

     RDKit          2D

 42 47  0  0  0  0  0  0  0  0999 V2000
    3.7500   -9.0933    0.0000 C   0  0  0  0  0  0  0  0  0  0  0  0
    3.0000   -7.7942    0.0000 C   0  0  0  0  0  0  0  0  0  0  0  0
    3.7500   -6.4952    0.0000 C   0  0  0  0  0  0  0  0  0  0  0  0
    5.2500   -6.4952    0.0000 O   0  0  0  0  0  0  0  0  0  0  0  0
    3.0000   -5.1962    0.0000 N   0  0  0  0  0  0  0  0  0  0  0  0
    1.5000   -5.1962    0.0000 C   0  0  0  0  0  0  0  0  0  0  0  0
    0.7500   -3.8971    0.0000 C   0  0  0  0  0  0  0  0  0  0  0  0
    1.5000   -2.5981    0.0000 N   0  0  0  0  0  0  0  0  0  0  0  0
    0.7500   -1.2990    0.0000 C   0  0  0  0  0  0  0  0  0  0  0  0
    1.5000    0.0000    0.0000 N   0  0  0  0  0  0  0  0  0  0  0  0
    0.7500    1.2990    0.0000 C   0  0  0  0  0  0  0  0  0  0  0  0
    1.5000    2.5981    0.0000 O   0  0  0  0  0  0  0  0  0  0  0  0
    3.0000    2.5981    0.0000 C   0  0  0  0  0  0  0  0  0  0  0  0
    3.7500    3.8971    0.0000 C   0  0  0  0  0  0  0  0  0  0  0  0
    3.1399    5.2674    0.0000 C   0  0  0  0  0  0  0  0  0  0  0  0
    4.2546    6.2711    0.0000 C   0  0  0  0  0  0  0  0  0  0  0  0
    4.0978    7.7629    0.0000 F   0  0  0  0  0  0  0  0  0  0  0  0
    5.5537    5.5211    0.0000 C   0  0  0  0  0  0  0  0  0  0  0  0
    5.2418    4.0539    0.0000 N   0  0  0  0  0  0  0  0  0  0  0  0
    6.2455    2.9392    0.0000 C   0  0  0  0  0  0  0  0  0  0  0  0
   -0.7500    1.2990    0.0000 N   0  0  0  0  0  0  0  0  0  0  0  0
   -1.5000    0.0000    0.0000 C   0  0  0  0  0  0  0  0  0  0  0  0
   -0.7500   -1.2990    0.0000 C   0  0  0  0  0  0  0  0  0  0  0  0
   -1.5000   -2.5981    0.0000 C   0  0  0  0  0  0  0  0  0  0  0  0
   -3.0000   -2.5981    0.0000 C   0  0  0  0  0  0  0  0  0  0  0  0
   -3.7500   -3.8971    0.0000 C   0  0  0  0  0  0  0  0  0  0  0  0
   -3.7500   -1.2990    0.0000 C   0  0  0  0  0  0  0  0  0  0  0  0
   -5.2500   -1.2990    0.0000 C   0  0  0  0  0  0  0  0  0  0  0  0
   -6.0000   -2.5981    0.0000 C   0  0  0  0  0  0  0  0  0  0  0  0
   -7.5000   -2.5981    0.0000 C   0  0  0  0  0  0  0  0  0  0  0  0
   -8.2500   -3.8971    0.0000 O   0  0  0  0  0  0  0  0  0  0  0  0
   -8.2500   -1.2990    0.0000 C   0  0  0  0  0  0  0  0  0  0  0  0
   -7.5000   -0.0000    0.0000 C   0  0  0  0  0  0  0  0  0  0  0  0
   -8.2500    1.2990    0.0000 C   0  0  0  0  0  0  0  0  0  0  0  0
   -7.5000    2.5981    0.0000 C   0  0  0  0  0  0  0  0  0  0  0  0
   -6.0000    2.5981    0.0000 C   0  0  0  0  0  0  0  0  0  0  0  0
   -5.2500    1.2990    0.0000 C   0  0  0  0  0  0  0  0  0  0  0  0
   -6.0000    0.0000    0.0000 C   0  0  0  0  0  0  0  0  0  0  0  0
   -3.0000    0.0000    0.0000 C   0  0  0  0  0  0  0  0  0  0  0  0
    3.0000   -2.5981    0.0000 C   0  0  0  0  0  0  0  0  0  0  0  0
    3.7500   -1.2990    0.0000 C   0  0  0  0  0  0  0  0  0  0  0  0
    3.7500   -3.8971    0.0000 C   0  0  0  0  0  0  0  0  0  0  0  0
  1  2  2  0
  2  3  1  0
  3  4  2  0
  3  5  1  0
  5  6  1  0
  6  7  1  0
  7  8  1  0
  8  9  1  0
  9 10  2  0
 10 11  1  0
 11 12  1  0
 12 13  1  0
 14 13  1  6
 14 15  1  0
 15 16  1  0
 16 17  1  6
 16 18  1  0
 18 19  1  0
 19 20  1  0
 11 21  2  0
 21 22  1  0
 22 23  2  0
 23 24  1  0
 24 25  1  0
 25 26  1  1
 25 27  1  0
 27 28  1  6
 28 29  2  0
 29 30  1  0
 30 31  1  0
 30 32  2  0
 32 33  1  0
 33 34  2  0
 34 35  1  0
 35 36  2  0
 36 37  1  0
 37 38  2  0
 27 39  1  0
  8 40  1  0
 40 41  1  1
 40 42  1  0
 42  5  1  0
 23  9  1  0
 38 28  1  0
 19 14  1  0
 39 22  1  0
 38 33  1  0
M  END
>  <molecule_chembl_id>  (324) 
CHEMBL5090056

>  <canonical_smiles>  (324) 
C=CC(=O)N1CCN(c2nc(OC[C@@H]3C[C@H](F)CN3C)nc3c2C[C@@H](C)[C@H](c2cc(O)cc4ccccc24)C3)[C@@H](C)C1

>  <pchembl_value_mean>  (324) 
7.96

>  <inchi>  (324) 
InChI=1S/C33H40FN5O3/c1-5-31(41)38-10-11-39(21(3)17-38)32-29-12-20(2)27(28-15-25(40)13-22-8-6-7-9-26(22)28)16-30(29)35-33(36-32)42-19-24-14-23(34)18-37(24)4/h5-9,13,15,20-21,23-24,27,40H,1,10-12,14,16-19H2,2-4H3/t20-,21+,23+,24+,27-/m1/s1

$$$$

     RDKit          2D

 48 55  0  0  0  0  0  0  0  0999 V2000
    2.0490   -4.6471    0.0000 H   0  0  0  0  0  0  0  0  0  0  0  0
    0.7500   -3.8971    0.0000 C   0  0  0  0  0  0  0  0  0  0  0  0
   -0.5490   -3.1471    0.0000 H   0  0  0  0  0  0  0  0  0  0  0  0
    1.5000   -2.5981    0.0000 O   0  0  0  0  0  0  0  0  0  0  0  0
    0.7500   -1.2990    0.0000 C   0  0  0  0  0  0  0  0  0  0  0  0
    1.5000    0.0000    0.0000 N   0  0  0  0  0  0  0  0  0  0  0  0
    0.7500    1.2990    0.0000 C   0  0  0  0  0  0  0  0  0  0  0  0
    1.5000    2.5981    0.0000 N   0  0  0  0  0  0  0  0  0  0  0  0
    3.0000    2.5981    0.0000 C   0  0  0  0  0  0  0  0  0  0  0  0
    3.7500    3.8971    0.0000 C   0  0  0  0  0  0  0  0  0  0  0  0
    4.0619    5.3643    0.0000 C   0  0  0  0  0  0  0  0  0  0  0  0
    2.7628    6.1143    0.0000 C   0  0  0  0  0  0  0  0  0  0  0  0
    1.6481    5.1106    0.0000 C   0  0  0  0  0  0  0  0  0  0  0  0
    0.7500    3.8971    0.0000 C   0  0  0  0  0  0  0  0  0  0  0  0
    2.2582    3.7403    0.0000 N   0  0  0  0  0  0  0  0  0  0  0  0
   -0.7500    1.2990    0.0000 C   0  0  0  0  0  0  0  0  0  0  0  0
   -1.5000    2.5981    0.0000 C   0  0  0  0  0  0  0  0  0  0  0  0
   -3.0000    2.5981    0.0000 N   0  0  0  0  0  0  0  0  0  0  0  0
   -3.7500    1.2990    0.0000 C   0  0  0  0  0  0  0  0  0  0  0  0
   -5.2500    1.2990    0.0000 C   0  0  0  0  0  0  0  0  0  0  0  0
   -6.0000   -0.0000    0.0000 C   0  0  0  0  0  0  0  0  0  0  0  0
   -7.5000   -0.0000    0.0000 C   0  0  0  0  0  0  0  0  0  0  0  0
   -8.2500   -1.2990    0.0000 O   0  0  0  0  0  0  0  0  0  0  0  0
   -8.2500    1.2990    0.0000 C   0  0  0  0  0  0  0  0  0  0  0  0
   -7.5000    2.5981    0.0000 C   0  0  0  0  0  0  0  0  0  0  0  0
   -8.2500    3.8971    0.0000 C   0  0  0  0  0  0  0  0  0  0  0  0
   -7.5000    5.1962    0.0000 C   0  0  0  0  0  0  0  0  0  0  0  0
   -6.0000    5.1962    0.0000 C   0  0  0  0  0  0  0  0  0  0  0  0
   -5.2500    6.4952    0.0000 F   0  0  0  0  0  0  0  0  0  0  0  0
   -5.2500    3.8971    0.0000 C   0  0  0  0  0  0  0  0  0  0  0  0
   -3.7500    3.8971    0.0000 C   0  0  0  0  0  0  0  0  0  0  0  0
   -2.2500    3.8971    0.0000 C   0  0  0  0  0  0  0  0  0  0  0  0
   -6.0000    2.5981    0.0000 C   0  0  0  0  0  0  0  0  0  0  0  0
   -3.0000    0.0000    0.0000 C   0  0  0  0  0  0  0  0  0  0  0  0
   -3.7500   -1.2990    0.0000 F   0  0  0  0  0  0  0  0  0  0  0  0
   -1.5000    0.0000    0.0000 C   0  0  0  0  0  0  0  0  0  0  0  0
   -0.7500   -1.2990    0.0000 N   0  0  0  0  0  0  0  0  0  0  0  0
   -0.0000   -5.1962    0.0000 C   0  0  0  0  0  0  0  0  0  0  0  0
    1.4672   -5.5080    0.0000 C   0  0  0  0  0  0  0  0  0  0  0  0
    1.6240   -6.9998    0.0000 C   0  0  0  0  0  0  0  0  0  0  0  0
    0.2537   -7.6099    0.0000 C   0  0  0  0  0  0  0  0  0  0  0  0
   -0.7500   -6.4952    0.0000 N   0  0  0  0  0  0  0  0  0  0  0  0
   -2.2172   -6.1833    0.0000 C   0  0  0  0  0  0  0  0  0  0  0  0
   -2.3740   -4.6915    0.0000 C   0  0  0  0  0  0  0  0  0  0  0  0
   -3.6731   -3.9415    0.0000 C   0  0  0  0  0  0  0  0  0  0  0  0
   -4.9721   -4.6915    0.0000 F   0  0  0  0  0  0  0  0  0  0  0  0
   -3.6731   -2.4415    0.0000 F   0  0  0  0  0  0  0  0  0  0  0  0
   -1.0037   -4.0814    0.0000 C   0  0  0  0  0  0  0  0  0  0  0  0
  1  2  1  0
  2  3  1  0
  2  4  1  0
  4  5  1  0
  5  6  2  0
  6  7  1  0
  7  8  1  0
  8  9  1  0
 10  9  1  6
 10 11  1  0
 11 12  1  0
 13 12  1  6
 13 14  1  0
 13 15  1  0
  7 16  2  0
 16 17  1  0
 17 18  2  0
 18 19  1  0
 19 20  1  0
 20 21  2  0
 21 22  1  0
 22 23  1  0
 22 24  2  0
 24 25  1  0
 25 26  2  0
 26 27  1  0
 27 28  2  0
 28 29  1  0
 28 30  1  0
 30 31  1  0
 31 32  3  0
 30 33  2  0
 19 34  2  0
 34 35  1  0
 34 36  1  0
 36 37  2  0
  2 38  1  0
 38 39  1  0
 39 40  1  0
 40 41  1  0
 41 42  1  0
 42 43  1  0
 43 44  1  0
 44 45  2  0
 45 46  1  0
 45 47  1  0
 44 48  1  0
 37  5  1  0
 42 38  1  0
 14  8  1  0
 36 16  1  0
 48 38  1  0
 15 10  1  0
 33 20  1  0
 33 25  1  0
M  ISO  2   1   2   3   2
M  END
>  <molecule_chembl_id>  (325) 
CHEMBL5417773

>  <canonical_smiles>  (325) 
[2H]C([2H])(Oc1nc(N2C[C@H]3CC[C@@H](C2)N3)c2cnc(-c3cc(O)cc4ccc(F)c(C#C)c34)c(F)c2n1)C12CCCN1CC(=C(F)F)C2

>  <pchembl_value_mean>  (325) 
7.99

>  <inchi>  (325) 
InChI=1S/C34H30F4N6O2/c1-2-23-26(35)7-4-18-10-22(45)11-24(27(18)23)29-28(36)30-25(13-39-29)32(43-15-20-5-6-21(16-43)40-20)42-33(41-30)46-17-34-8-3-9-44(34)14-19(12-34)31(37)38/h1,4,7,10-11,13,20-21,40,45H,3,5-6,8-9,12,14-17H2/t20-,21+,34?/i17D2

$$$$

     RDKit          2D

 45 52  0  0  0  0  0  0  0  0999 V2000
   -0.2796  -14.2769    0.0000 C   0  0  0  0  0  0  0  0  0  0  0  0
   -0.1228  -12.7852    0.0000 C   0  0  0  0  0  0  0  0  0  0  0  0
    1.2476  -12.1751    0.0000 C   0  0  0  0  0  0  0  0  0  0  0  0
    2.4611  -13.0567    0.0000 O   0  0  0  0  0  0  0  0  0  0  0  0
    1.4043  -10.6833    0.0000 N   0  0  0  0  0  0  0  0  0  0  0  0
    0.4604   -9.5176    0.0000 C   0  0  0  0  0  0  0  0  0  0  0  0
    1.6261   -8.5736    0.0000 C   0  0  0  0  0  0  0  0  0  0  0  0
    2.7918   -7.6296    0.0000 C   0  0  0  0  0  0  0  0  0  0  0  0
    1.8478   -6.4639    0.0000 C   0  0  0  0  0  0  0  0  0  0  0  0
    2.0046   -4.9721    0.0000 N   0  0  0  0  0  0  0  0  0  0  0  0
    0.8899   -3.9684    0.0000 N   0  0  0  0  0  0  0  0  0  0  0  0
    1.5000   -2.5981    0.0000 C   0  0  0  0  0  0  0  0  0  0  0  0
    0.7500   -1.2990    0.0000 C   0  0  0  0  0  0  0  0  0  0  0  0
    1.5000    0.0000    0.0000 C   0  0  0  0  0  0  0  0  0  0  0  0
    0.7500    1.2990    0.0000 C   0  0  0  0  0  0  0  0  0  0  0  0
   -0.7500    1.2990    0.0000 C   0  0  0  0  0  0  0  0  0  0  0  0
   -1.7537    2.4138    0.0000 N   0  0  0  0  0  0  0  0  0  0  0  0
   -3.1240    1.8037    0.0000 N   0  0  0  0  0  0  0  0  0  0  0  0
   -4.4231    2.5537    0.0000 C   0  0  0  0  0  0  0  0  0  0  0  0
   -4.4231    4.0537    0.0000 C   0  0  0  0  0  0  0  0  0  0  0  0
   -5.7221    4.8037    0.0000 N   0  0  0  0  0  0  0  0  0  0  0  0
   -5.7221    6.3037    0.0000 C   0  0  0  0  0  0  0  0  0  0  0  0
   -7.0211    7.0537    0.0000 C   0  0  0  0  0  0  0  0  0  0  0  0
   -8.3202    6.3037    0.0000 O   0  0  0  0  0  0  0  0  0  0  0  0
   -8.3202    4.8037    0.0000 C   0  0  0  0  0  0  0  0  0  0  0  0
   -7.0211    4.0537    0.0000 C   0  0  0  0  0  0  0  0  0  0  0  0
   -2.9672    0.3119    0.0000 C   0  0  0  0  0  0  0  0  0  0  0  0
   -1.5000    0.0000    0.0000 C   0  0  0  0  0  0  0  0  0  0  0  0
   -0.7500   -1.2990    0.0000 C   0  0  0  0  0  0  0  0  0  0  0  0
    2.9918   -2.7549    0.0000 C   0  0  0  0  0  0  0  0  0  0  0  0
    3.9955   -1.6402    0.0000 C   0  0  0  0  0  0  0  0  0  0  0  0
    5.4627   -1.9520    0.0000 C   0  0  0  0  0  0  0  0  0  0  0  0
    5.9262   -3.3786    0.0000 Cl  0  0  0  0  0  0  0  0  0  0  0  0
    6.4664   -0.8373    0.0000 C   0  0  0  0  0  0  0  0  0  0  0  0
    7.9336   -1.1492    0.0000 C   0  0  0  0  0  0  0  0  0  0  0  0
    6.0029    0.5893    0.0000 C   0  0  0  0  0  0  0  0  0  0  0  0
    4.5356    0.9012    0.0000 C   0  0  0  0  0  0  0  0  0  0  0  0
    3.7856    2.2002    0.0000 N   0  0  0  0  0  0  0  0  0  0  0  0
    2.3184    1.8883    0.0000 N   0  0  0  0  0  0  0  0  0  0  0  0
    2.1616    0.3965    0.0000 C   0  0  0  0  0  0  0  0  0  0  0  0
    3.5320   -0.2136    0.0000 C   0  0  0  0  0  0  0  0  0  0  0  0
    3.3037   -4.2221    0.0000 C   0  0  0  0  0  0  0  0  0  0  0  0
    4.6740   -4.8322    0.0000 C   0  0  0  0  0  0  0  0  0  0  0  0
    0.6821   -7.4079    0.0000 C   0  0  0  0  0  0  0  0  0  0  0  0
    2.5701   -9.7393    0.0000 C   0  0  0  0  0  0  0  0  0  0  0  0
  1  2  2  0
  2  3  1  0
  3  4  2  0
  3  5  1  0
  5  6  1  0
  6  7  1  0
  7  8  1  0
  8  9  1  0
  9 10  1  0
 10 11  1  0
 11 12  2  0
 12 13  1  0
 13 14  1  0
 14 15  2  0
 15 16  1  0
 16 17  2  0
 17 18  1  0
 18 19  1  0
 19 20  1  0
 20 21  1  0
 21 22  1  0
 22 23  1  0
 23 24  1  0
 24 25  1  0
 25 26  1  0
 18 27  1  0
 27 28  2  0
 28 29  1  0
 12 30  1  0
 30 31  1  0
 31 32  2  0
 32 33  1  0
 32 34  1  0
 34 35  1  0
 34 36  2  0
 36 37  1  0
 37 38  1  0
 38 39  1  0
 39 40  2  0
 40 41  1  0
 30 42  2  0
 42 43  1  0
  9 44  1  0
  7 45  1  0
 45  5  1  0
 44  7  1  0
 42 10  1  0
 29 13  2  0
 41 31  1  0
 28 16  1  0
 41 37  2  0
 26 21  1  0
M  END
>  <molecule_chembl_id>  (326) 
CHEMBL5271997

>  <canonical_smiles>  (326) 
C=CC(=O)N1CC2(CC(n3nc(-c4ccc5nn(CCN6CCOCC6)cc5c4)c(-c4c(Cl)c(C)cc5[nH]ncc45)c3C)C2)C1

>  <pchembl_value_mean>  (326) 
8.0

>  <inchi>  (326) 
InChI=1S/C34H37ClN8O2/c1-4-29(44)41-19-34(20-41)15-25(16-34)43-22(3)30(31-26-17-36-37-28(26)13-21(2)32(31)35)33(39-43)23-5-6-27-24(14-23)18-42(38-27)8-7-40-9-11-45-12-10-40/h4-6,13-14,17-18,25H,1,7-12,15-16,19-20H2,2-3H3,(H,36,37)

$$$$

     RDKit          2D

 41 46  0  0  0  0  0  0  0  0999 V2000
    9.7500   -3.8971    0.0000 C   0  0  0  0  0  0  0  0  0  0  0  0
    8.2500   -3.8971    0.0000 C   0  0  0  0  0  0  0  0  0  0  0  0
    7.5000   -2.5981    0.0000 C   0  0  0  0  0  0  0  0  0  0  0  0
    8.2500   -1.2990    0.0000 O   0  0  0  0  0  0  0  0  0  0  0  0
    6.0000   -2.5981    0.0000 N   0  0  0  0  0  0  0  0  0  0  0  0
    5.2500   -3.8971    0.0000 C   0  0  0  0  0  0  0  0  0  0  0  0
    3.7500   -3.8971    0.0000 C   0  0  0  0  0  0  0  0  0  0  0  0
    3.0000   -2.5981    0.0000 N   0  0  0  0  0  0  0  0  0  0  0  0
    1.5000   -2.5981    0.0000 C   0  0  0  0  0  0  0  0  0  0  0  0
    0.7500   -3.8971    0.0000 N   0  0  0  0  0  0  0  0  0  0  0  0
   -0.7500   -3.8971    0.0000 C   0  0  0  0  0  0  0  0  0  0  0  0
   -1.5000   -5.1962    0.0000 O   0  0  0  0  0  0  0  0  0  0  0  0
   -3.0000   -5.1962    0.0000 C   0  0  0  0  0  0  0  0  0  0  0  0
   -3.7500   -6.4952    0.0000 C   0  0  0  0  0  0  0  0  0  0  0  0
   -3.1399   -7.8655    0.0000 C   0  0  0  0  0  0  0  0  0  0  0  0
   -4.2546   -8.8692    0.0000 C   0  0  0  0  0  0  0  0  0  0  0  0
   -5.5537   -8.1192    0.0000 C   0  0  0  0  0  0  0  0  0  0  0  0
   -5.2418   -6.6520    0.0000 N   0  0  0  0  0  0  0  0  0  0  0  0
   -6.2455   -5.5373    0.0000 C   0  0  0  0  0  0  0  0  0  0  0  0
   -1.5000   -2.5981    0.0000 N   0  0  0  0  0  0  0  0  0  0  0  0
   -0.7500   -1.2990    0.0000 C   0  0  0  0  0  0  0  0  0  0  0  0
    0.7500   -1.2990    0.0000 C   0  0  0  0  0  0  0  0  0  0  0  0
    1.5000    0.0000    0.0000 C   0  0  0  0  0  0  0  0  0  0  0  0
    0.7500    1.2990    0.0000 C   0  0  0  0  0  0  0  0  0  0  0  0
   -0.7500    1.2990    0.0000 N   0  0  0  0  0  0  0  0  0  0  0  0
   -1.5000    2.5981    0.0000 C   0  0  0  0  0  0  0  0  0  0  0  0
   -3.0000    2.5981    0.0000 C   0  0  0  0  0  0  0  0  0  0  0  0
   -3.7500    3.8971    0.0000 C   0  0  0  0  0  0  0  0  0  0  0  0
   -3.0000    5.1962    0.0000 C   0  0  0  0  0  0  0  0  0  0  0  0
   -1.5000    5.1962    0.0000 C   0  0  0  0  0  0  0  0  0  0  0  0
   -0.7500    6.4952    0.0000 C   0  0  0  0  0  0  0  0  0  0  0  0
    0.7500    6.4952    0.0000 C   0  0  0  0  0  0  0  0  0  0  0  0
    1.5000    5.1962    0.0000 C   0  0  0  0  0  0  0  0  0  0  0  0
    0.7500    3.8971    0.0000 C   0  0  0  0  0  0  0  0  0  0  0  0
   -0.7500    3.8971    0.0000 C   0  0  0  0  0  0  0  0  0  0  0  0
   -1.5000    0.0000    0.0000 C   0  0  0  0  0  0  0  0  0  0  0  0
    3.7500   -1.2990    0.0000 C   0  0  0  0  0  0  0  0  0  0  0  0
    5.2500   -1.2990    0.0000 C   0  0  0  0  0  0  0  0  0  0  0  0
    6.0000   -0.0000    0.0000 C   0  0  0  0  0  0  0  0  0  0  0  0
    5.2500    1.2990    0.0000 C   0  0  0  0  0  0  0  0  0  0  0  0
    4.5000    2.5981    0.0000 N   0  0  0  0  0  0  0  0  0  0  0  0
  1  2  2  0
  2  3  1  0
  3  4  2  0
  3  5  1  0
  5  6  1  0
  6  7  1  0
  7  8  1  0
  8  9  1  0
  9 10  2  0
 10 11  1  0
 11 12  1  0
 12 13  1  0
 14 13  1  6
 14 15  1  0
 15 16  1  0
 16 17  1  0
 17 18  1  0
 18 19  1  0
 11 20  2  0
 20 21  1  0
 21 22  2  0
 22 23  1  0
 23 24  1  0
 24 25  1  0
 25 26  1  0
 26 27  2  0
 27 28  1  0
 28 29  2  0
 29 30  1  0
 30 31  2  0
 31 32  1  0
 32 33  2  0
 33 34  1  0
 34 35  2  0
 25 36  1  0
  8 37  1  0
 37 38  1  0
 38 39  1  6
 39 40  1  0
 40 41  3  0
 38  5  1  0
 22  9  1  0
 35 26  1  0
 18 14  1  0
 36 21  1  0
 35 30  1  0
M  END
>  <molecule_chembl_id>  (327) 
CHEMBL4648671

>  <canonical_smiles>  (327) 
C=CC(=O)N1CCN(c2nc(OC[C@@H]3CCCN3C)nc3c2CCN(c2cccc4ccccc24)C3)C[C@@H]1CC#N

>  <pchembl_value_mean>  (327) 
8.0

>  <inchi>  (327) 
InChI=1S/C32H37N7O2/c1-3-30(40)39-19-18-38(20-24(39)13-15-33)31-27-14-17-37(29-12-6-9-23-8-4-5-11-26(23)29)21-28(27)34-32(35-31)41-22-25-10-7-16-36(25)2/h3-6,8-9,11-12,24-25H,1,7,10,13-14,16-22H2,2H3/t24-,25-/m0/s1

$$$$

     RDKit          2D

 41 47  0  0  0  0  0  0  0  0999 V2000
   -1.7123   -9.9008    0.0000 C   0  0  0  0  0  0  0  0  0  0  0  0
   -2.8614   -8.9366    0.0000 N   0  0  0  0  0  0  0  0  0  0  0  0
   -4.2709   -9.4496    0.0000 C   0  0  0  0  0  0  0  0  0  0  0  0
   -2.6009   -7.4594    0.0000 C   0  0  0  0  0  0  0  0  0  0  0  0
   -3.7500   -6.4952    0.0000 C   0  0  0  0  0  0  0  0  0  0  0  0
   -3.0000   -5.1962    0.0000 C   0  0  0  0  0  0  0  0  0  0  0  0
   -1.5000   -5.1962    0.0000 O   0  0  0  0  0  0  0  0  0  0  0  0
   -0.7500   -3.8971    0.0000 C   0  0  0  0  0  0  0  0  0  0  0  0
   -1.5000   -2.5981    0.0000 N   0  0  0  0  0  0  0  0  0  0  0  0
   -0.7500   -1.2990    0.0000 C   0  0  0  0  0  0  0  0  0  0  0  0
    0.7500   -1.2990    0.0000 C   0  0  0  0  0  0  0  0  0  0  0  0
    1.5000   -2.5981    0.0000 C   0  0  0  0  0  0  0  0  0  0  0  0
    3.0000   -2.5981    0.0000 N   0  0  0  0  0  0  0  0  0  0  0  0
    3.7500   -3.8971    0.0000 C   0  0  0  0  0  0  0  0  0  0  0  0
    5.2500   -3.8971    0.0000 C   0  0  0  0  0  0  0  0  0  0  0  0
    6.6766   -3.4336    0.0000 C   0  0  0  0  0  0  0  0  0  0  0  0
    6.6766   -1.9336    0.0000 C   0  0  0  0  0  0  0  0  0  0  0  0
    5.2500   -1.4701    0.0000 C   0  0  0  0  0  0  0  0  0  0  0  0
    3.7500   -1.2990    0.0000 C   0  0  0  0  0  0  0  0  0  0  0  0
    4.3683   -2.6836    0.0000 N   0  0  0  0  0  0  0  0  0  0  0  0
    0.7500   -3.8971    0.0000 N   0  0  0  0  0  0  0  0  0  0  0  0
    1.5000    0.0000    0.0000 C   0  0  0  0  0  0  0  0  0  0  0  0
    0.7500    1.2990    0.0000 C   0  0  0  0  0  0  0  0  0  0  0  0
   -0.7500    1.2990    0.0000 N   0  0  0  0  0  0  0  0  0  0  0  0
   -1.5000    2.5981    0.0000 C   0  0  0  0  0  0  0  0  0  0  0  0
   -0.7500    3.8971    0.0000 C   0  0  0  0  0  0  0  0  0  0  0  0
   -1.5000    5.1962    0.0000 C   0  0  0  0  0  0  0  0  0  0  0  0
   -0.7500    6.4952    0.0000 O   0  0  0  0  0  0  0  0  0  0  0  0
   -3.0000    5.1962    0.0000 C   0  0  0  0  0  0  0  0  0  0  0  0
   -3.7500    3.8971    0.0000 C   0  0  0  0  0  0  0  0  0  0  0  0
   -5.2500    3.8971    0.0000 C   0  0  0  0  0  0  0  0  0  0  0  0
   -6.0000    2.5981    0.0000 C   0  0  0  0  0  0  0  0  0  0  0  0
   -5.2500    1.2990    0.0000 C   0  0  0  0  0  0  0  0  0  0  0  0
   -3.7500    1.2990    0.0000 C   0  0  0  0  0  0  0  0  0  0  0  0
   -3.0000    0.0000    0.0000 Br  0  0  0  0  0  0  0  0  0  0  0  0
   -3.0000    2.5981    0.0000 C   0  0  0  0  0  0  0  0  0  0  0  0
   -1.5000    0.0000    0.0000 C   0  0  0  0  0  0  0  0  0  0  0  0
   -4.8991   -7.4594    0.0000 C   0  0  0  0  0  0  0  0  0  0  0  0
   -5.1595   -5.9822    0.0000 C   0  0  0  0  0  0  0  0  0  0  0  0
   -6.6595   -5.9822    0.0000 F   0  0  0  0  0  0  0  0  0  0  0  0
   -4.8991   -4.5049    0.0000 F   0  0  0  0  0  0  0  0  0  0  0  0
  1  2  1  0
  2  3  1  0
  2  4  1  0
  4  5  1  0
  5  6  1  0
  6  7  1  0
  7  8  1  0
  8  9  2  0
  9 10  1  0
 10 11  2  0
 11 12  1  0
 12 13  1  0
 13 14  1  0
 14 15  1  0
 15 16  1  0
 16 17  1  0
 17 18  1  0
 18 19  1  0
 18 20  1  0
 12 21  2  0
 11 22  1  0
 22 23  1  0
 23 24  1  0
 24 25  1  0
 25 26  2  0
 26 27  1  0
 27 28  1  0
 27 29  2  0
 29 30  1  0
 30 31  2  0
 31 32  1  0
 32 33  2  0
 33 34  1  0
 34 35  1  0
 34 36  2  0
 24 37  1  0
  5 38  1  0
 38 39  1  0
 39 40  1  0
 39 41  1  0
 39  5  1  0
 21  8  1  0
 36 25  1  0
 37 10  1  0
 19 13  1  0
 36 30  1  0
 20 15  1  0
M  END
>  <molecule_chembl_id>  (328) 
CHEMBL4878409

>  <canonical_smiles>  (328) 
CN(C)CC1(COc2nc3c(c(N4CC5CCC(C4)N5)n2)CCN(c2cc(O)cc4cccc(Br)c24)C3)CC1(F)F

>  <pchembl_value_mean>  (328) 
8.01

>  <inchi>  (328) 
InChI=1S/C30H35BrF2N6O2/c1-37(2)16-29(15-30(29,32)33)17-41-28-35-24-14-38(25-11-21(40)10-18-4-3-5-23(31)26(18)25)9-8-22(24)27(36-28)39-12-19-6-7-20(13-39)34-19/h3-5,10-11,19-20,34,40H,6-9,12-17H2,1-2H3

$$$$

     RDKit          2D

 46 50  0  0  0  0  0  0  0  0999 V2000
   -9.7500   -1.2990    0.0000 C   0  0  0  0  0  0  0  0  0  0  0  0
   -8.2500   -1.2990    0.0000 C   0  0  0  0  0  0  0  0  0  0  0  0
   -7.5000   -2.5981    0.0000 C   0  0  0  0  0  0  0  0  0  0  0  0
   -8.2500   -3.8971    0.0000 O   0  0  0  0  0  0  0  0  0  0  0  0
   -6.0000   -2.5981    0.0000 N   0  0  0  0  0  0  0  0  0  0  0  0
   -5.2500   -1.2990    0.0000 C   0  0  0  0  0  0  0  0  0  0  0  0
   -3.7500   -1.2990    0.0000 C   0  0  0  0  0  0  0  0  0  0  0  0
   -3.0000   -2.5981    0.0000 N   0  0  0  0  0  0  0  0  0  0  0  0
   -1.5000   -2.5981    0.0000 C   0  0  0  0  0  0  0  0  0  0  0  0
   -0.7500   -3.8971    0.0000 C   0  0  0  0  0  0  0  0  0  0  0  0
   -1.5000   -5.1962    0.0000 C   0  0  0  0  0  0  0  0  0  0  0  0
   -2.2500   -6.4952    0.0000 N   0  0  0  0  0  0  0  0  0  0  0  0
    0.7500   -3.8971    0.0000 C   0  0  0  0  0  0  0  0  0  0  0  0
    1.1772   -4.9037    0.0000 O   0  0  0  0  0  0  0  0  0  0  0  0
    1.5000   -2.5981    0.0000 N   0  0  0  0  0  0  0  0  0  0  0  0
    3.0000   -2.5981    0.0000 C   0  0  0  0  0  0  0  0  0  0  0  0
    3.7500   -3.8971    0.0000 C   0  0  0  0  0  0  0  0  0  0  0  0
    3.0000   -5.1962    0.0000 C   0  0  0  0  0  0  0  0  0  0  0  0
    3.7500   -6.4952    0.0000 C   0  0  0  0  0  0  0  0  0  0  0  0
    1.9147   -5.3294    0.0000 C   0  0  0  0  0  0  0  0  0  0  0  0
    5.2500   -3.8971    0.0000 N   0  0  0  0  0  0  0  0  0  0  0  0
    6.0000   -2.5981    0.0000 C   0  0  0  0  0  0  0  0  0  0  0  0
    5.2500   -1.2990    0.0000 N   0  0  0  0  0  0  0  0  0  0  0  0
    3.7500   -1.2990    0.0000 C   0  0  0  0  0  0  0  0  0  0  0  0
    3.0000   -0.0000    0.0000 C   0  0  0  0  0  0  0  0  0  0  0  0
    3.9028    1.1979    0.0000 C   0  0  0  0  0  0  0  0  0  0  0  0
    2.2265    0.1929    0.0000 C   0  0  0  0  0  0  0  0  0  0  0  0
    0.7500   -1.2990    0.0000 C   0  0  0  0  0  0  0  0  0  0  0  0
    1.5000    0.0000    0.0000 N   0  0  0  0  0  0  0  0  0  0  0  0
    0.7500    1.2990    0.0000 C   0  0  0  0  0  0  0  0  0  0  0  0
    1.5000    2.5981    0.0000 C   0  0  0  0  0  0  0  0  0  0  0  0
    3.0000    2.5981    0.0000 C   0  0  0  0  0  0  0  0  0  0  0  0
    3.9028    1.4001    0.0000 N   0  0  0  0  0  0  0  0  0  0  0  0
    3.7500    3.8971    0.0000 C   0  0  0  0  0  0  0  0  0  0  0  0
    5.2500    3.8971    0.0000 Cl  0  0  0  0  0  0  0  0  0  0  0  0
    3.0000    5.1962    0.0000 C   0  0  0  0  0  0  0  0  0  0  0  0
    1.5000    5.1962    0.0000 C   0  0  0  0  0  0  0  0  0  0  0  0
    0.7500    6.4952    0.0000 Cl  0  0  0  0  0  0  0  0  0  0  0  0
    0.7500    3.8971    0.0000 C   0  0  0  0  0  0  0  0  0  0  0  0
   -0.7500    3.8971    0.0000 F   0  0  0  0  0  0  0  0  0  0  0  0
   -0.7500    1.2990    0.0000 C   0  0  0  0  0  0  0  0  0  0  0  0
   -1.5000    2.5981    0.0000 Cl  0  0  0  0  0  0  0  0  0  0  0  0
   -1.5000    0.0000    0.0000 C   0  0  0  0  0  0  0  0  0  0  0  0
   -0.7500   -1.2990    0.0000 C   0  0  0  0  0  0  0  0  0  0  0  0
   -3.7500   -3.8971    0.0000 C   0  0  0  0  0  0  0  0  0  0  0  0
   -5.2500   -3.8971    0.0000 C   0  0  0  0  0  0  0  0  0  0  0  0
  1  2  2  0
  2  3  1  0
  3  4  2  0
  3  5  1  0
  5  6  1  0
  6  7  1  0
  7  8  1  0
  8  9  1  0
  9 10  2  0
 10 11  1  0
 11 12  3  0
 10 13  1  0
 13 14  2  0
 13 15  1  0
 15 16  1  0
 16 17  2  0
 17 18  1  0
 18 19  1  0
 18 20  1  0
 17 21  1  0
 21 22  2  0
 22 23  1  0
 23 24  2  0
 24 25  1  0
 25 26  1  0
 25 27  1  0
 15 28  1  0
 28 29  2  0
 29 30  1  0
 30 31  1  0
 31 32  2  0
 32 33  1  0
 32 34  1  0
 34 35  1  0
 34 36  2  0
 36 37  1  0
 37 38  1  0
 37 39  2  0
 39 40  1  0
 30 41  2  0
 41 42  1  0
 41 43  1  0
 43 44  2  0
  8 45  1  0
 45 46  1  0
 46  5  1  0
 44  9  1  0
 24 16  1  0
 44 28  1  0
 39 31  1  0
M  END
>  <molecule_chembl_id>  (329) 
CHEMBL4857822

>  <canonical_smiles>  (329) 
C=CC(=O)N1CCN(c2c(C#N)c(=O)n(-c3c(C(C)C)ncnc3C(C)C)c3nc(-c4c(N)c(Cl)cc(Cl)c4F)c(Cl)cc23)CC1

>  <pchembl_value_mean>  (329) 
8.025

>  <inchi>  (329) 
InChI=1S/C32H30Cl3FN8O2/c1-6-22(45)42-7-9-43(10-8-42)29-17-11-21(35)28(23-24(36)19(33)12-20(34)25(23)38)41-31(17)44(32(46)18(29)13-37)30-26(15(2)3)39-14-40-27(30)16(4)5/h6,11-12,14-16H,1,7-10,38H2,2-5H3

$$$$

     RDKit          2D

 47 51  0  0  0  0  0  0  0  0999 V2000
   -9.7500   -1.2990    0.0000 C   0  0  0  0  0  0  0  0  0  0  0  0
   -8.2500   -1.2990    0.0000 C   0  0  0  0  0  0  0  0  0  0  0  0
   -7.5000   -2.5981    0.0000 C   0  0  0  0  0  0  0  0  0  0  0  0
   -8.2500   -3.8971    0.0000 O   0  0  0  0  0  0  0  0  0  0  0  0
   -6.0000   -2.5981    0.0000 N   0  0  0  0  0  0  0  0  0  0  0  0
   -5.2500   -1.2990    0.0000 C   0  0  0  0  0  0  0  0  0  0  0  0
   -3.7500   -1.2990    0.0000 C   0  0  0  0  0  0  0  0  0  0  0  0
   -3.0000   -2.5981    0.0000 N   0  0  0  0  0  0  0  0  0  0  0  0
   -1.5000   -2.5981    0.0000 C   0  0  0  0  0  0  0  0  0  0  0  0
   -0.7500   -3.8971    0.0000 C   0  0  0  0  0  0  0  0  0  0  0  0
   -1.5000   -5.1962    0.0000 C   0  0  0  0  0  0  0  0  0  0  0  0
   -2.2500   -6.4952    0.0000 N   0  0  0  0  0  0  0  0  0  0  0  0
    0.7500   -3.8971    0.0000 C   0  0  0  0  0  0  0  0  0  0  0  0
    1.1772   -4.9037    0.0000 O   0  0  0  0  0  0  0  0  0  0  0  0
    1.5000   -2.5981    0.0000 N   0  0  0  0  0  0  0  0  0  0  0  0
    3.0000   -2.5981    0.0000 C   0  0  0  0  0  0  0  0  0  0  0  0
    3.7500   -1.2990    0.0000 C   0  0  0  0  0  0  0  0  0  0  0  0
    3.0000   -0.0000    0.0000 C   0  0  0  0  0  0  0  0  0  0  0  0
    5.2500   -1.2990    0.0000 C   0  0  0  0  0  0  0  0  0  0  0  0
    6.0000   -2.5981    0.0000 C   0  0  0  0  0  0  0  0  0  0  0  0
    5.2500   -3.8971    0.0000 N   0  0  0  0  0  0  0  0  0  0  0  0
    3.7500   -3.8971    0.0000 C   0  0  0  0  0  0  0  0  0  0  0  0
    3.0000   -5.1962    0.0000 C   0  0  0  0  0  0  0  0  0  0  0  0
    3.7500   -6.4952    0.0000 C   0  0  0  0  0  0  0  0  0  0  0  0
    1.9147   -5.3294    0.0000 C   0  0  0  0  0  0  0  0  0  0  0  0
    0.7500   -1.2990    0.0000 C   0  0  0  0  0  0  0  0  0  0  0  0
    1.5000    0.0000    0.0000 N   0  0  0  0  0  0  0  0  0  0  0  0
    0.7500    1.2990    0.0000 C   0  0  0  0  0  0  0  0  0  0  0  0
    1.5000    2.5981    0.0000 C   0  0  0  0  0  0  0  0  0  0  0  0
    3.0000    2.5981    0.0000 C   0  0  0  0  0  0  0  0  0  0  0  0
    3.7500    1.2990    0.0000 N   0  0  0  0  0  0  0  0  0  0  0  0
    3.7500    3.8971    0.0000 C   0  0  0  0  0  0  0  0  0  0  0  0
    5.2500    3.8971    0.0000 Cl  0  0  0  0  0  0  0  0  0  0  0  0
    3.0000    5.1962    0.0000 C   0  0  0  0  0  0  0  0  0  0  0  0
    1.5000    5.1962    0.0000 C   0  0  0  0  0  0  0  0  0  0  0  0
    0.7500    6.4952    0.0000 Cl  0  0  0  0  0  0  0  0  0  0  0  0
    0.7500    3.8971    0.0000 C   0  0  0  0  0  0  0  0  0  0  0  0
   -0.7500    3.8971    0.0000 F   0  0  0  0  0  0  0  0  0  0  0  0
   -0.7500    1.2990    0.0000 C   0  0  0  0  0  0  0  0  0  0  0  0
   -1.5000    2.5981    0.0000 Cl  0  0  0  0  0  0  0  0  0  0  0  0
   -1.5000    0.0000    0.0000 C   0  0  0  0  0  0  0  0  0  0  0  0
   -0.7500   -1.2990    0.0000 C   0  0  0  0  0  0  0  0  0  0  0  0
   -3.7500   -3.8971    0.0000 C   0  0  0  0  0  0  0  0  0  0  0  0
   -5.2500   -3.8971    0.0000 C   0  0  0  0  0  0  0  0  0  0  0  0
   -6.0000   -5.1962    0.0000 C   0  0  0  0  0  0  0  0  0  0  0  0
   -5.2500   -6.4952    0.0000 C   0  0  0  0  0  0  0  0  0  0  0  0
   -4.5000   -7.7942    0.0000 N   0  0  0  0  0  0  0  0  0  0  0  0
  1  2  2  0
  2  3  1  0
  3  4  2  0
  3  5  1  0
  5  6  1  0
  6  7  1  0
  7  8  1  0
  8  9  1  0
  9 10  2  0
 10 11  1  0
 11 12  3  0
 10 13  1  0
 13 14  2  0
 13 15  1  0
 15 16  1  0
 16 17  2  0
 17 18  1  0
 17 19  1  0
 19 20  2  0
 20 21  1  0
 21 22  2  0
 22 23  1  0
 23 24  1  0
 23 25  1  0
 15 26  1  0
 26 27  2  0
 27 28  1  0
 28 29  1  0
 29 30  2  0
 30 31  1  0
 30 32  1  0
 32 33  1  0
 32 34  2  0
 34 35  1  0
 35 36  1  0
 35 37  2  0
 37 38  1  0
 28 39  2  0
 39 40  1  0
 39 41  1  0
 41 42  2  0
  8 43  1  0
 43 44  1  0
 44 45  1  6
 45 46  1  0
 46 47  3  0
 44  5  1  0
 42  9  1  0
 22 16  1  0
 42 26  1  0
 37 29  1  0
M  END
>  <molecule_chembl_id>  (330) 
CHEMBL4859387

>  <canonical_smiles>  (330) 
C=CC(=O)N1CCN(c2c(C#N)c(=O)n(-c3c(C)ccnc3C(C)C)c3nc(-c4c(N)c(Cl)cc(Cl)c4F)c(Cl)cc23)C[C@@H]1CC#N

>  <pchembl_value_mean>  (330) 
8.045

>  <inchi>  (330) 
InChI=1S/C33H28Cl3FN8O2/c1-5-24(46)44-11-10-43(15-18(44)6-8-38)31-19-12-23(36)29(25-26(37)21(34)13-22(35)27(25)40)42-32(19)45(33(47)20(31)14-39)30-17(4)7-9-41-28(30)16(2)3/h5,7,9,12-13,16,18H,1,6,10-11,15,40H2,2-4H3/t18-/m0/s1

$$$$

     RDKit          2D

 34 39  0  0  0  0  0  0  0  0999 V2000
    5.2500   -1.2990    0.0000 C   0  0  0  0  0  0  0  0  0  0  0  0
    3.7500   -1.2990    0.0000 C   0  0  0  0  0  0  0  0  0  0  0  0
    3.0000    0.0000    0.0000 C   0  0  0  0  0  0  0  0  0  0  0  0
    3.7500    1.2990    0.0000 O   0  0  0  0  0  0  0  0  0  0  0  0
    1.5000    0.0000    0.0000 N   0  0  0  0  0  0  0  0  0  0  0  0
    0.7500   -1.2990    0.0000 C   0  0  0  0  0  0  0  0  0  0  0  0
   -0.7500   -1.2990    0.0000 C   0  0  0  0  0  0  0  0  0  0  0  0
   -1.5000    0.0000    0.0000 N   0  0  0  0  0  0  0  0  0  0  0  0
   -2.9489   -0.3882    0.0000 C   0  0  0  0  0  0  0  0  0  0  0  0
   -2.9489   -1.8882    0.0000 N   0  0  0  0  0  0  0  0  0  0  0  0
   -4.2479   -2.6382    0.0000 C   0  0  0  0  0  0  0  0  0  0  0  0
   -5.5470   -1.8882    0.0000 N   0  0  0  0  0  0  0  0  0  0  0  0
   -5.5470   -0.3882    0.0000 C   0  0  0  0  0  0  0  0  0  0  0  0
   -7.0162   -0.0156    0.0000 C   0  0  0  0  0  0  0  0  0  0  0  0
   -7.2120    1.4715    0.0000 C   0  0  0  0  0  0  0  0  0  0  0  0
   -8.5978    2.0456    0.0000 C   0  0  0  0  0  0  0  0  0  0  0  0
   -8.7936    3.5327    0.0000 C   0  0  0  0  0  0  0  0  0  0  0  0
   -7.6036    4.4459    0.0000 C   0  0  0  0  0  0  0  0  0  0  0  0
  -10.1794    4.1068    0.0000 C   0  0  0  0  0  0  0  0  0  0  0  0
  -11.3695    3.1936    0.0000 C   0  0  0  0  0  0  0  0  0  0  0  0
  -11.1737    1.7065    0.0000 C   0  0  0  0  0  0  0  0  0  0  0  0
  -12.1478    0.5658    0.0000 N   0  0  0  0  0  0  0  0  0  0  0  0
  -11.3641   -0.7131    0.0000 N   0  0  0  0  0  0  0  0  0  0  0  0
   -9.9055   -0.3629    0.0000 C   0  0  0  0  0  0  0  0  0  0  0  0
   -9.7879    1.1324    0.0000 C   0  0  0  0  0  0  0  0  0  0  0  0
   -6.0220    2.3847    0.0000 C   0  0  0  0  0  0  0  0  0  0  0  0
   -6.2178    3.8719    0.0000 Cl  0  0  0  0  0  0  0  0  0  0  0  0
   -4.6362    1.8107    0.0000 C   0  0  0  0  0  0  0  0  0  0  0  0
   -4.2479    0.3618    0.0000 C   0  0  0  0  0  0  0  0  0  0  0  0
   -3.8862    3.1097    0.0000 O   0  0  0  0  0  0  0  0  0  0  0  0
   -2.4373    3.4979    0.0000 C   0  0  0  0  0  0  0  0  0  0  0  0
   -1.1382    2.7479    0.0000 C   0  0  0  0  0  0  0  0  0  0  0  0
   -0.7500    1.2990    0.0000 C   0  0  0  0  0  0  0  0  0  0  0  0
    0.7500    1.2990    0.0000 C   0  0  0  0  0  0  0  0  0  0  0  0
  1  2  2  0
  2  3  1  0
  3  4  2  0
  3  5  1  0
  5  6  1  0
  6  7  1  0
  7  8  1  0
  8  9  1  0
  9 10  2  0
 10 11  1  0
 11 12  2  0
 12 13  1  0
 13 14  2  0
 14 15  1  0
 15 16  1  0
 16 17  2  0
 17 18  1  0
 17 19  1  0
 19 20  2  0
 20 21  1  0
 21 22  1  0
 22 23  1  0
 23 24  2  0
 24 25  1  0
 15 26  2  0
 26 27  1  0
 26 28  1  0
 28 29  2  0
 28 30  1  0
 30 31  1  0
 31 32  1  0
 33 32  1  1
 33 34  1  0
 34  5  1  0
 33  8  1  0
 29  9  1  0
 29 13  1  0
 25 16  1  0
 25 21  2  0
M  END
>  <molecule_chembl_id>  (331) 
CHEMBL5171553

>  <canonical_smiles>  (331) 
C=CC(=O)N1CCN2c3ncnc4cc(-c5c(C)ccc6[nH]ncc56)c(Cl)c(c34)OCC[C@H]2C1

>  <pchembl_value_mean>  (331) 
8.05

>  <inchi>  (331) 
InChI=1S/C25H23ClN6O2/c1-3-20(33)31-7-8-32-15(12-31)6-9-34-24-22-19(27-13-28-25(22)32)10-16(23(24)26)21-14(2)4-5-18-17(21)11-29-30-18/h3-5,10-11,13,15H,1,6-9,12H2,2H3,(H,29,30)/t15-/m0/s1

$$$$

     RDKit          2D

 43 48  0  0  0  0  0  0  0  0999 V2000
    9.7500   -3.8971    0.0000 C   0  0  0  0  0  0  0  0  0  0  0  0
    8.2500   -3.8971    0.0000 C   0  0  0  0  0  0  0  0  0  0  0  0
    7.5000   -5.1962    0.0000 F   0  0  0  0  0  0  0  0  0  0  0  0
    7.5000   -2.5981    0.0000 C   0  0  0  0  0  0  0  0  0  0  0  0
    8.2500   -1.2990    0.0000 O   0  0  0  0  0  0  0  0  0  0  0  0
    6.0000   -2.5981    0.0000 N   0  0  0  0  0  0  0  0  0  0  0  0
    5.2500   -3.8971    0.0000 C   0  0  0  0  0  0  0  0  0  0  0  0
    3.7500   -3.8971    0.0000 C   0  0  0  0  0  0  0  0  0  0  0  0
    3.0000   -2.5981    0.0000 N   0  0  0  0  0  0  0  0  0  0  0  0
    1.5000   -2.5981    0.0000 C   0  0  0  0  0  0  0  0  0  0  0  0
    0.7500   -3.8971    0.0000 N   0  0  0  0  0  0  0  0  0  0  0  0
   -0.7500   -3.8971    0.0000 C   0  0  0  0  0  0  0  0  0  0  0  0
   -1.5000   -5.1962    0.0000 O   0  0  0  0  0  0  0  0  0  0  0  0
   -3.0000   -5.1962    0.0000 C   0  0  0  0  0  0  0  0  0  0  0  0
   -3.7500   -6.4952    0.0000 C   0  0  0  0  0  0  0  0  0  0  0  0
   -3.1399   -7.8655    0.0000 C   0  0  0  0  0  0  0  0  0  0  0  0
   -4.2546   -8.8692    0.0000 C   0  0  0  0  0  0  0  0  0  0  0  0
   -5.5537   -8.1192    0.0000 C   0  0  0  0  0  0  0  0  0  0  0  0
   -5.2418   -6.6520    0.0000 N   0  0  0  0  0  0  0  0  0  0  0  0
   -6.2455   -5.5373    0.0000 C   0  0  0  0  0  0  0  0  0  0  0  0
   -1.5000   -2.5981    0.0000 N   0  0  0  0  0  0  0  0  0  0  0  0
   -0.7500   -1.2990    0.0000 C   0  0  0  0  0  0  0  0  0  0  0  0
    0.7500   -1.2990    0.0000 C   0  0  0  0  0  0  0  0  0  0  0  0
    1.5000    0.0000    0.0000 C   0  0  0  0  0  0  0  0  0  0  0  0
    0.7500    1.2990    0.0000 C   0  0  0  0  0  0  0  0  0  0  0  0
   -0.7500    1.2990    0.0000 N   0  0  0  0  0  0  0  0  0  0  0  0
   -1.5000    2.5981    0.0000 C   0  0  0  0  0  0  0  0  0  0  0  0
   -3.0000    2.5981    0.0000 C   0  0  0  0  0  0  0  0  0  0  0  0
   -3.7500    3.8971    0.0000 C   0  0  0  0  0  0  0  0  0  0  0  0
   -3.0000    5.1962    0.0000 C   0  0  0  0  0  0  0  0  0  0  0  0
   -1.5000    5.1962    0.0000 C   0  0  0  0  0  0  0  0  0  0  0  0
   -0.7500    6.4952    0.0000 C   0  0  0  0  0  0  0  0  0  0  0  0
    0.7500    6.4952    0.0000 C   0  0  0  0  0  0  0  0  0  0  0  0
    1.5000    5.1962    0.0000 C   0  0  0  0  0  0  0  0  0  0  0  0
    0.7500    3.8971    0.0000 C   0  0  0  0  0  0  0  0  0  0  0  0
    1.5000    2.5981    0.0000 Cl  0  0  0  0  0  0  0  0  0  0  0  0
   -0.7500    3.8971    0.0000 C   0  0  0  0  0  0  0  0  0  0  0  0
   -1.5000    0.0000    0.0000 C   0  0  0  0  0  0  0  0  0  0  0  0
    3.7500   -1.2990    0.0000 C   0  0  0  0  0  0  0  0  0  0  0  0
    5.2500   -1.2990    0.0000 C   0  0  0  0  0  0  0  0  0  0  0  0
    6.0000   -0.0000    0.0000 C   0  0  0  0  0  0  0  0  0  0  0  0
    5.2500    1.2990    0.0000 C   0  0  0  0  0  0  0  0  0  0  0  0
    4.5000    2.5981    0.0000 N   0  0  0  0  0  0  0  0  0  0  0  0
  1  2  2  0
  2  3  1  0
  2  4  1  0
  4  5  2  0
  4  6  1  0
  6  7  1  0
  7  8  1  0
  8  9  1  0
  9 10  1  0
 10 11  2  0
 11 12  1  0
 12 13  1  0
 13 14  1  0
 15 14  1  6
 15 16  1  0
 16 17  1  0
 17 18  1  0
 18 19  1  0
 19 20  1  0
 12 21  2  0
 21 22  1  0
 22 23  2  0
 23 24  1  0
 24 25  1  0
 25 26  1  0
 26 27  1  0
 27 28  2  0
 28 29  1  0
 29 30  2  0
 30 31  1  0
 31 32  2  0
 32 33  1  0
 33 34  2  0
 34 35  1  0
 35 36  1  0
 35 37  2  0
 26 38  1  0
  9 39  1  0
 39 40  1  0
 40 41  1  6
 41 42  1  0
 42 43  3  0
 40  6  1  0
 23 10  1  0
 37 27  1  0
 19 15  1  0
 38 22  1  0
 37 31  1  0
M  END
>  <molecule_chembl_id>  (332) 
CHEMBL4594350

>  <canonical_smiles>  (332) 
C=C(F)C(=O)N1CCN(c2nc(OC[C@@H]3CCCN3C)nc3c2CCN(c2cccc4cccc(Cl)c24)C3)C[C@@H]1CC#N

>  <pchembl_value_mean>  (332) 
8.05

>  <inchi>  (332) 
InChI=1S/C32H35ClFN7O2/c1-21(34)31(42)41-17-16-40(18-23(41)11-13-35)30-25-12-15-39(28-10-4-7-22-6-3-9-26(33)29(22)28)19-27(25)36-32(37-30)43-20-24-8-5-14-38(24)2/h3-4,6-7,9-10,23-24H,1,5,8,11-12,14-20H2,2H3/t23-,24-/m0/s1

$$$$

     RDKit          2D

 47 51  0  0  0  0  0  0  0  0999 V2000
   -9.7500   -1.2990    0.0000 C   0  0  0  0  0  0  0  0  0  0  0  0
   -8.2500   -1.2990    0.0000 C   0  0  0  0  0  0  0  0  0  0  0  0
   -7.5000   -2.5981    0.0000 C   0  0  0  0  0  0  0  0  0  0  0  0
   -8.2500   -3.8971    0.0000 O   0  0  0  0  0  0  0  0  0  0  0  0
   -6.0000   -2.5981    0.0000 N   0  0  0  0  0  0  0  0  0  0  0  0
   -5.2500   -1.2990    0.0000 C   0  0  0  0  0  0  0  0  0  0  0  0
   -3.7500   -1.2990    0.0000 C   0  0  0  0  0  0  0  0  0  0  0  0
   -3.0000   -2.5981    0.0000 N   0  0  0  0  0  0  0  0  0  0  0  0
   -1.5000   -2.5981    0.0000 C   0  0  0  0  0  0  0  0  0  0  0  0
   -0.7500   -3.8971    0.0000 C   0  0  0  0  0  0  0  0  0  0  0  0
   -1.5000   -5.1962    0.0000 C   0  0  0  0  0  0  0  0  0  0  0  0
   -2.2500   -6.4952    0.0000 N   0  0  0  0  0  0  0  0  0  0  0  0
    0.7500   -3.8971    0.0000 C   0  0  0  0  0  0  0  0  0  0  0  0
    1.1772   -4.9037    0.0000 O   0  0  0  0  0  0  0  0  0  0  0  0
    1.5000   -2.5981    0.0000 N   0  0  0  0  0  0  0  0  0  0  0  0
    3.0000   -2.5981    0.0000 C   0  0  0  0  0  0  0  0  0  0  0  0
    3.7500   -1.2990    0.0000 C   0  0  0  0  0  0  0  0  0  0  0  0
    3.0000   -0.0000    0.0000 C   0  0  0  0  0  0  0  0  0  0  0  0
    5.2500   -1.2990    0.0000 C   0  0  0  0  0  0  0  0  0  0  0  0
    6.0000   -2.5981    0.0000 C   0  0  0  0  0  0  0  0  0  0  0  0
    5.2500   -3.8971    0.0000 N   0  0  0  0  0  0  0  0  0  0  0  0
    3.7500   -3.8971    0.0000 C   0  0  0  0  0  0  0  0  0  0  0  0
    3.0000   -5.1962    0.0000 C   0  0  0  0  0  0  0  0  0  0  0  0
    3.7500   -6.4952    0.0000 C   0  0  0  0  0  0  0  0  0  0  0  0
    1.9147   -5.3294    0.0000 C   0  0  0  0  0  0  0  0  0  0  0  0
    0.7500   -1.2990    0.0000 C   0  0  0  0  0  0  0  0  0  0  0  0
    1.5000    0.0000    0.0000 N   0  0  0  0  0  0  0  0  0  0  0  0
    0.7500    1.2990    0.0000 C   0  0  0  0  0  0  0  0  0  0  0  0
    1.5000    2.5981    0.0000 C   0  0  0  0  0  0  0  0  0  0  0  0
    3.0000    2.5981    0.0000 C   0  0  0  0  0  0  0  0  0  0  0  0
    3.7500    1.2990    0.0000 N   0  0  0  0  0  0  0  0  0  0  0  0
    3.7500    3.8971    0.0000 C   0  0  0  0  0  0  0  0  0  0  0  0
    5.2500    3.8971    0.0000 Cl  0  0  0  0  0  0  0  0  0  0  0  0
    3.0000    5.1962    0.0000 C   0  0  0  0  0  0  0  0  0  0  0  0
    1.5000    5.1962    0.0000 C   0  0  0  0  0  0  0  0  0  0  0  0
    0.7500    6.4952    0.0000 Cl  0  0  0  0  0  0  0  0  0  0  0  0
    0.7500    3.8971    0.0000 C   0  0  0  0  0  0  0  0  0  0  0  0
   -0.7500    3.8971    0.0000 F   0  0  0  0  0  0  0  0  0  0  0  0
   -0.7500    1.2990    0.0000 C   0  0  0  0  0  0  0  0  0  0  0  0
   -1.5000    2.5981    0.0000 Cl  0  0  0  0  0  0  0  0  0  0  0  0
   -1.5000    0.0000    0.0000 C   0  0  0  0  0  0  0  0  0  0  0  0
   -0.7500   -1.2990    0.0000 C   0  0  0  0  0  0  0  0  0  0  0  0
   -3.7500   -3.8971    0.0000 C   0  0  0  0  0  0  0  0  0  0  0  0
   -5.2500   -3.8971    0.0000 C   0  0  0  0  0  0  0  0  0  0  0  0
   -6.0000   -5.1962    0.0000 C   0  0  0  0  0  0  0  0  0  0  0  0
   -5.2500   -6.4952    0.0000 C   0  0  0  0  0  0  0  0  0  0  0  0
   -4.5000   -7.7942    0.0000 N   0  0  0  0  0  0  0  0  0  0  0  0
  1  2  2  0
  2  3  1  0
  3  4  2  0
  3  5  1  0
  5  6  1  0
  6  7  1  0
  7  8  1  0
  8  9  1  0
  9 10  2  0
 10 11  1  0
 11 12  3  0
 10 13  1  0
 13 14  2  0
 13 15  1  0
 15 16  1  0
 16 17  2  0
 17 18  1  0
 17 19  1  0
 19 20  2  0
 20 21  1  0
 21 22  2  0
 22 23  1  0
 23 24  1  0
 23 25  1  0
 15 26  1  0
 26 27  2  0
 27 28  1  0
 28 29  1  0
 29 30  2  0
 30 31  1  0
 30 32  1  0
 32 33  1  0
 32 34  2  0
 34 35  1  0
 35 36  1  0
 35 37  2  0
 37 38  1  0
 28 39  2  0
 39 40  1  0
 39 41  1  0
 41 42  2  0
  8 43  1  0
 43 44  1  0
 44 45  1  0
 45 46  1  0
 46 47  3  0
 44  5  1  0
 42  9  1  0
 22 16  1  0
 42 26  1  0
 37 29  1  0
M  END
>  <molecule_chembl_id>  (333) 
CHEMBL4867102

>  <canonical_smiles>  (333) 
C=CC(=O)N1CCN(c2c(C#N)c(=O)n(-c3c(C)ccnc3C(C)C)c3nc(-c4c(N)c(Cl)cc(Cl)c4F)c(Cl)cc23)CC1CC#N

>  <pchembl_value_mean>  (333) 
8.059999

>  <inchi>  (333) 
InChI=1S/C33H28Cl3FN8O2/c1-5-24(46)44-11-10-43(15-18(44)6-8-38)31-19-12-23(36)29(25-26(37)21(34)13-22(35)27(25)40)42-32(19)45(33(47)20(31)14-39)30-17(4)7-9-41-28(30)16(2)3/h5,7,9,12-13,16,18H,1,6,10-11,15,40H2,2-4H3

$$$$

     RDKit          2D

 44 48  0  0  0  0  0  0  0  0999 V2000
    9.7500   -3.8971    0.0000 C   0  0  0  0  0  0  0  0  0  0  0  0
    8.2500   -3.8971    0.0000 C   0  0  0  0  0  0  0  0  0  0  0  0
    7.5000   -5.1962    0.0000 F   0  0  0  0  0  0  0  0  0  0  0  0
    7.5000   -2.5981    0.0000 C   0  0  0  0  0  0  0  0  0  0  0  0
    8.2500   -1.2990    0.0000 O   0  0  0  0  0  0  0  0  0  0  0  0
    6.0000   -2.5981    0.0000 N   0  0  0  0  0  0  0  0  0  0  0  0
    5.2500   -3.8971    0.0000 C   0  0  0  0  0  0  0  0  0  0  0  0
    3.7500   -3.8971    0.0000 C   0  0  0  0  0  0  0  0  0  0  0  0
    3.0000   -2.5981    0.0000 N   0  0  0  0  0  0  0  0  0  0  0  0
    1.5000   -2.5981    0.0000 C   0  0  0  0  0  0  0  0  0  0  0  0
    0.7500   -3.8971    0.0000 C   0  0  0  0  0  0  0  0  0  0  0  0
   -0.7500   -3.8971    0.0000 C   0  0  0  0  0  0  0  0  0  0  0  0
   -1.5000   -5.1962    0.0000 C   0  0  0  0  0  0  0  0  0  0  0  0
   -0.7500   -6.4952    0.0000 O   0  0  0  0  0  0  0  0  0  0  0  0
   -3.0000   -5.1962    0.0000 N   0  0  0  0  0  0  0  0  0  0  0  0
   -3.7500   -6.4952    0.0000 C   0  0  0  0  0  0  0  0  0  0  0  0
   -5.2500   -6.4952    0.0000 C   0  0  0  0  0  0  0  0  0  0  0  0
   -3.0000   -7.7942    0.0000 C   0  0  0  0  0  0  0  0  0  0  0  0
   -3.7500   -9.0933    0.0000 N   0  0  0  0  0  0  0  0  0  0  0  0
   -3.0000  -10.3923    0.0000 C   0  0  0  0  0  0  0  0  0  0  0  0
   -5.2500   -9.0933    0.0000 C   0  0  0  0  0  0  0  0  0  0  0  0
   -1.5000   -2.5981    0.0000 N   0  0  0  0  0  0  0  0  0  0  0  0
   -0.7500   -1.2990    0.0000 C   0  0  0  0  0  0  0  0  0  0  0  0
    0.7500   -1.2990    0.0000 C   0  0  0  0  0  0  0  0  0  0  0  0
    1.5000    0.0000    0.0000 C   0  0  0  0  0  0  0  0  0  0  0  0
    0.7500    1.2990    0.0000 C   0  0  0  0  0  0  0  0  0  0  0  0
   -0.7500    1.2990    0.0000 N   0  0  0  0  0  0  0  0  0  0  0  0
   -1.5000    2.5981    0.0000 C   0  0  0  0  0  0  0  0  0  0  0  0
   -3.0000    2.5981    0.0000 C   0  0  0  0  0  0  0  0  0  0  0  0
   -3.7500    3.8971    0.0000 C   0  0  0  0  0  0  0  0  0  0  0  0
   -3.0000    5.1962    0.0000 C   0  0  0  0  0  0  0  0  0  0  0  0
   -1.5000    5.1962    0.0000 C   0  0  0  0  0  0  0  0  0  0  0  0
   -0.7500    6.4952    0.0000 C   0  0  0  0  0  0  0  0  0  0  0  0
    0.7500    6.4952    0.0000 C   0  0  0  0  0  0  0  0  0  0  0  0
    1.5000    5.1962    0.0000 C   0  0  0  0  0  0  0  0  0  0  0  0
    0.7500    3.8971    0.0000 C   0  0  0  0  0  0  0  0  0  0  0  0
    1.5000    2.5981    0.0000 C   0  0  0  0  0  0  0  0  0  0  0  0
   -0.7500    3.8971    0.0000 C   0  0  0  0  0  0  0  0  0  0  0  0
   -1.5000    0.0000    0.0000 C   0  0  0  0  0  0  0  0  0  0  0  0
    3.7500   -1.2990    0.0000 C   0  0  0  0  0  0  0  0  0  0  0  0
    5.2500   -1.2990    0.0000 C   0  0  0  0  0  0  0  0  0  0  0  0
    6.0000   -0.0000    0.0000 C   0  0  0  0  0  0  0  0  0  0  0  0
    5.2500    1.2990    0.0000 C   0  0  0  0  0  0  0  0  0  0  0  0
    4.5000    2.5981    0.0000 N   0  0  0  0  0  0  0  0  0  0  0  0
  1  2  2  0
  2  3  1  0
  2  4  1  0
  4  5  2  0
  4  6  1  0
  6  7  1  0
  7  8  1  0
  8  9  1  0
  9 10  1  0
 10 11  2  0
 11 12  1  0
 12 13  1  0
 13 14  2  0
 13 15  1  0
 15 16  1  0
 16 17  1  1
 16 18  1  0
 18 19  1  0
 19 20  1  0
 19 21  1  0
 12 22  2  0
 22 23  1  0
 23 24  2  0
 24 25  1  0
 25 26  1  0
 26 27  1  0
 27 28  1  0
 28 29  2  0
 29 30  1  0
 30 31  2  0
 31 32  1  0
 32 33  2  0
 33 34  1  0
 34 35  2  0
 35 36  1  0
 36 37  1  0
 36 38  2  0
 27 39  1  0
  9 40  1  0
 40 41  1  0
 41 42  1  6
 42 43  1  0
 43 44  3  0
 41  6  1  0
 24 10  1  0
 38 28  1  0
 39 23  1  0
 38 32  1  0
M  END
>  <molecule_chembl_id>  (334) 
CHEMBL4847011

>  <canonical_smiles>  (334) 
C=C(F)C(=O)N1CCN(c2cc(C(=O)N[C@H](C)CN(C)C)nc3c2CCN(c2cccc4cccc(C)c24)C3)C[C@@H]1CC#N

>  <pchembl_value_mean>  (334) 
8.08

>  <inchi>  (334) 
InChI=1S/C34H40FN7O2/c1-22-8-6-9-25-10-7-11-30(32(22)25)40-15-13-27-29(21-40)38-28(33(43)37-23(2)19-39(4)5)18-31(27)41-16-17-42(34(44)24(3)35)26(20-41)12-14-36/h6-11,18,23,26H,3,12-13,15-17,19-21H2,1-2,4-5H3,(H,37,43)/t23-,26+/m1/s1

$$$$

     RDKit          2D

 44 49  0  0  0  0  0  0  0  0999 V2000
    9.7500   -3.8971    0.0000 C   0  0  0  0  0  0  0  0  0  0  0  0
    8.2500   -3.8971    0.0000 C   0  0  0  0  0  0  0  0  0  0  0  0
    7.5000   -2.5981    0.0000 C   0  0  0  0  0  0  0  0  0  0  0  0
    8.2500   -1.2990    0.0000 O   0  0  0  0  0  0  0  0  0  0  0  0
    6.0000   -2.5981    0.0000 N   0  0  0  0  0  0  0  0  0  0  0  0
    5.2500   -3.8971    0.0000 C   0  0  0  0  0  0  0  0  0  0  0  0
    3.7500   -3.8971    0.0000 C   0  0  0  0  0  0  0  0  0  0  0  0
    3.0000   -2.5981    0.0000 N   0  0  0  0  0  0  0  0  0  0  0  0
    1.5000   -2.5981    0.0000 C   0  0  0  0  0  0  0  0  0  0  0  0
    0.7500   -3.8971    0.0000 C   0  0  0  0  0  0  0  0  0  0  0  0
   -0.7500   -3.8971    0.0000 C   0  0  0  0  0  0  0  0  0  0  0  0
   -1.5000   -5.1962    0.0000 C   0  0  0  0  0  0  0  0  0  0  0  0
   -0.7500   -6.4952    0.0000 O   0  0  0  0  0  0  0  0  0  0  0  0
   -3.0000   -5.1962    0.0000 N   0  0  0  0  0  0  0  0  0  0  0  0
   -3.7500   -6.4952    0.0000 C   0  0  0  0  0  0  0  0  0  0  0  0
   -5.2500   -6.4952    0.0000 C   0  0  0  0  0  0  0  0  0  0  0  0
   -6.0000   -5.1962    0.0000 C   0  0  0  0  0  0  0  0  0  0  0  0
   -7.5000   -5.1962    0.0000 C   0  0  0  0  0  0  0  0  0  0  0  0
   -8.2500   -6.4952    0.0000 C   0  0  0  0  0  0  0  0  0  0  0  0
   -7.5000   -7.7942    0.0000 C   0  0  0  0  0  0  0  0  0  0  0  0
   -6.0000   -7.7942    0.0000 N   0  0  0  0  0  0  0  0  0  0  0  0
   -1.5000   -2.5981    0.0000 N   0  0  0  0  0  0  0  0  0  0  0  0
   -0.7500   -1.2990    0.0000 C   0  0  0  0  0  0  0  0  0  0  0  0
    0.7500   -1.2990    0.0000 C   0  0  0  0  0  0  0  0  0  0  0  0
    1.5000    0.0000    0.0000 C   0  0  0  0  0  0  0  0  0  0  0  0
    0.7500    1.2990    0.0000 C   0  0  0  0  0  0  0  0  0  0  0  0
   -0.7500    1.2990    0.0000 N   0  0  0  0  0  0  0  0  0  0  0  0
   -1.5000    2.5981    0.0000 C   0  0  0  0  0  0  0  0  0  0  0  0
   -3.0000    2.5981    0.0000 C   0  0  0  0  0  0  0  0  0  0  0  0
   -3.7500    3.8971    0.0000 C   0  0  0  0  0  0  0  0  0  0  0  0
   -3.0000    5.1962    0.0000 C   0  0  0  0  0  0  0  0  0  0  0  0
   -1.5000    5.1962    0.0000 C   0  0  0  0  0  0  0  0  0  0  0  0
   -0.7500    6.4952    0.0000 C   0  0  0  0  0  0  0  0  0  0  0  0
    0.7500    6.4952    0.0000 C   0  0  0  0  0  0  0  0  0  0  0  0
    1.5000    5.1962    0.0000 C   0  0  0  0  0  0  0  0  0  0  0  0
    0.7500    3.8971    0.0000 C   0  0  0  0  0  0  0  0  0  0  0  0
    1.5000    2.5981    0.0000 C   0  0  0  0  0  0  0  0  0  0  0  0
   -0.7500    3.8971    0.0000 C   0  0  0  0  0  0  0  0  0  0  0  0
   -1.5000    0.0000    0.0000 C   0  0  0  0  0  0  0  0  0  0  0  0
    3.7500   -1.2990    0.0000 C   0  0  0  0  0  0  0  0  0  0  0  0
    5.2500   -1.2990    0.0000 C   0  0  0  0  0  0  0  0  0  0  0  0
    6.0000   -0.0000    0.0000 C   0  0  0  0  0  0  0  0  0  0  0  0
    5.2500    1.2990    0.0000 C   0  0  0  0  0  0  0  0  0  0  0  0
    4.5000    2.5981    0.0000 N   0  0  0  0  0  0  0  0  0  0  0  0
  1  2  2  0
  2  3  1  0
  3  4  2  0
  3  5  1  0
  5  6  1  0
  6  7  1  0
  7  8  1  0
  8  9  1  0
  9 10  2  0
 10 11  1  0
 11 12  1  0
 12 13  2  0
 12 14  1  0
 14 15  1  0
 15 16  1  0
 16 17  1  0
 17 18  1  0
 18 19  1  0
 19 20  1  0
 20 21  1  0
 11 22  2  0
 22 23  1  0
 23 24  2  0
 24 25  1  0
 25 26  1  0
 26 27  1  0
 27 28  1  0
 28 29  2  0
 29 30  1  0
 30 31  2  0
 31 32  1  0
 32 33  2  0
 33 34  1  0
 34 35  2  0
 35 36  1  0
 36 37  1  0
 36 38  2  0
 27 39  1  0
  8 40  1  0
 40 41  1  0
 41 42  1  6
 42 43  1  0
 43 44  3  0
 41  5  1  0
 24  9  1  0
 38 28  1  0
 21 16  1  0
 39 23  1  0
 38 32  1  0
M  END
>  <molecule_chembl_id>  (335) 
CHEMBL4847380

>  <canonical_smiles>  (335) 
C=CC(=O)N1CCN(c2cc(C(=O)NCC3CCCCN3)nc3c2CCN(c2cccc4cccc(C)c24)C3)C[C@@H]1CC#N

>  <pchembl_value_mean>  (335) 
8.08

>  <inchi>  (335) 
InChI=1S/C35H41N7O2/c1-3-33(43)42-19-18-41(22-27(42)13-15-36)32-20-29(35(44)38-21-26-11-4-5-16-37-26)39-30-23-40(17-14-28(30)32)31-12-7-10-25-9-6-8-24(2)34(25)31/h3,6-10,12,20,26-27,37H,1,4-5,11,13-14,16-19,21-23H2,2H3,(H,38,44)/t26?,27-/m0/s1

$$$$

     RDKit          2D

 41 47  0  0  0  0  0  0  0  0999 V2000
   -0.2796  -14.2769    0.0000 C   0  0  0  0  0  0  0  0  0  0  0  0
   -0.1228  -12.7852    0.0000 C   0  0  0  0  0  0  0  0  0  0  0  0
    1.2476  -12.1751    0.0000 C   0  0  0  0  0  0  0  0  0  0  0  0
    2.4611  -13.0567    0.0000 O   0  0  0  0  0  0  0  0  0  0  0  0
    1.4043  -10.6833    0.0000 N   0  0  0  0  0  0  0  0  0  0  0  0
    0.4604   -9.5176    0.0000 C   0  0  0  0  0  0  0  0  0  0  0  0
    1.6261   -8.5736    0.0000 C   0  0  0  0  0  0  0  0  0  0  0  0
    2.7918   -7.6296    0.0000 C   0  0  0  0  0  0  0  0  0  0  0  0
    1.8478   -6.4639    0.0000 C   0  0  0  0  0  0  0  0  0  0  0  0
    2.0046   -4.9721    0.0000 N   0  0  0  0  0  0  0  0  0  0  0  0
    0.8899   -3.9684    0.0000 N   0  0  0  0  0  0  0  0  0  0  0  0
    1.5000   -2.5981    0.0000 C   0  0  0  0  0  0  0  0  0  0  0  0
    0.7500   -1.2990    0.0000 C   0  0  0  0  0  0  0  0  0  0  0  0
    1.5000    0.0000    0.0000 C   0  0  0  0  0  0  0  0  0  0  0  0
    0.7500    1.2990    0.0000 C   0  0  0  0  0  0  0  0  0  0  0  0
   -0.7500    1.2990    0.0000 C   0  0  0  0  0  0  0  0  0  0  0  0
   -1.5000    0.0000    0.0000 C   0  0  0  0  0  0  0  0  0  0  0  0
   -2.9672    0.3119    0.0000 C   0  0  0  0  0  0  0  0  0  0  0  0
   -3.1240    1.8037    0.0000 N   0  0  0  0  0  0  0  0  0  0  0  0
   -1.7537    2.4138    0.0000 N   0  0  0  0  0  0  0  0  0  0  0  0
   -1.4418    3.8810    0.0000 C   0  0  0  0  0  0  0  0  0  0  0  0
   -2.5565    4.8847    0.0000 C   0  0  0  0  0  0  0  0  0  0  0  0
   -2.2447    6.3519    0.0000 O   0  0  0  0  0  0  0  0  0  0  0  0
   -3.3594    7.3556    0.0000 C   0  0  0  0  0  0  0  0  0  0  0  0
   -0.7500   -1.2990    0.0000 C   0  0  0  0  0  0  0  0  0  0  0  0
    2.9918   -2.7549    0.0000 C   0  0  0  0  0  0  0  0  0  0  0  0
    3.9955   -1.6402    0.0000 C   0  0  0  0  0  0  0  0  0  0  0  0
    5.4627   -1.9520    0.0000 C   0  0  0  0  0  0  0  0  0  0  0  0
    5.9262   -3.3786    0.0000 Cl  0  0  0  0  0  0  0  0  0  0  0  0
    6.4664   -0.8373    0.0000 C   0  0  0  0  0  0  0  0  0  0  0  0
    7.9336   -1.1492    0.0000 C   0  0  0  0  0  0  0  0  0  0  0  0
    6.0029    0.5893    0.0000 C   0  0  0  0  0  0  0  0  0  0  0  0
    4.5356    0.9012    0.0000 C   0  0  0  0  0  0  0  0  0  0  0  0
    3.7856    2.2002    0.0000 N   0  0  0  0  0  0  0  0  0  0  0  0
    2.3184    1.8883    0.0000 N   0  0  0  0  0  0  0  0  0  0  0  0
    2.1616    0.3965    0.0000 C   0  0  0  0  0  0  0  0  0  0  0  0
    3.5320   -0.2136    0.0000 C   0  0  0  0  0  0  0  0  0  0  0  0
    3.3037   -4.2221    0.0000 C   0  0  0  0  0  0  0  0  0  0  0  0
    4.6740   -4.8322    0.0000 C   0  0  0  0  0  0  0  0  0  0  0  0
    0.6821   -7.4079    0.0000 C   0  0  0  0  0  0  0  0  0  0  0  0
    2.5701   -9.7393    0.0000 C   0  0  0  0  0  0  0  0  0  0  0  0
  1  2  2  0
  2  3  1  0
  3  4  2  0
  3  5  1  0
  5  6  1  0
  6  7  1  0
  7  8  1  0
  8  9  1  0
  9 10  1  0
 10 11  1  0
 11 12  2  0
 12 13  1  0
 13 14  2  0
 14 15  1  0
 15 16  2  0
 16 17  1  0
 17 18  1  0
 18 19  2  0
 19 20  1  0
 20 21  1  0
 21 22  1  0
 22 23  1  0
 23 24  1  0
 17 25  2  0
 12 26  1  0
 26 27  1  0
 27 28  2  0
 28 29  1  0
 28 30  1  0
 30 31  1  0
 30 32  2  0
 32 33  1  0
 33 34  1  0
 34 35  1  0
 35 36  2  0
 36 37  1  0
 26 38  2  0
 38 39  1  0
  9 40  1  0
  7 41  1  0
 41  5  1  0
 40  7  1  0
 38 10  1  0
 25 13  1  0
 37 27  1  0
 20 16  1  0
 37 33  2  0
M  END
>  <molecule_chembl_id>  (336) 
CHEMBL5281254

>  <canonical_smiles>  (336) 
C=CC(=O)N1CC2(CC(n3nc(-c4ccc5c(cnn5CCOC)c4)c(-c4c(Cl)c(C)cc5[nH]ncc45)c3C)C2)C1

>  <pchembl_value_mean>  (336) 
8.1

>  <inchi>  (336) 
InChI=1S/C31H32ClN7O2/c1-5-26(40)37-16-31(17-37)12-22(13-31)39-19(3)27(28-23-15-33-35-24(23)10-18(2)29(28)32)30(36-39)20-6-7-25-21(11-20)14-34-38(25)8-9-41-4/h5-7,10-11,14-15,22H,1,8-9,12-13,16-17H2,2-4H3,(H,33,35)

$$$$

     RDKit          2D

 44 51  0  0  0  0  0  0  0  0999 V2000
    4.5000    0.0000    0.0000 C   0  0  0  0  0  0  0  0  0  0  0  0
    3.0000    0.0000    0.0000 C   0  0  0  0  0  0  0  0  0  0  0  0
    1.5000    0.0000    0.0000 C   0  0  0  0  0  0  0  0  0  0  0  0
    0.7500   -1.2990    0.0000 C   0  0  0  0  0  0  0  0  0  0  0  0
    1.5000   -2.5981    0.0000 F   0  0  0  0  0  0  0  0  0  0  0  0
   -0.7500   -1.2990    0.0000 C   0  0  0  0  0  0  0  0  0  0  0  0
   -1.5000    0.0000    0.0000 C   0  0  0  0  0  0  0  0  0  0  0  0
   -0.7500    1.2990    0.0000 C   0  0  0  0  0  0  0  0  0  0  0  0
   -1.5000    2.5981    0.0000 C   0  0  0  0  0  0  0  0  0  0  0  0
   -0.7500    3.8971    0.0000 C   0  0  0  0  0  0  0  0  0  0  0  0
   -1.5000    5.1962    0.0000 O   0  0  0  0  0  0  0  0  0  0  0  0
    0.7500    3.8971    0.0000 C   0  0  0  0  0  0  0  0  0  0  0  0
    1.5000    2.5981    0.0000 C   0  0  0  0  0  0  0  0  0  0  0  0
    3.0000    2.5981    0.0000 C   0  0  0  0  0  0  0  0  0  0  0  0
    3.7500    1.2990    0.0000 N   0  0  0  0  0  0  0  0  0  0  0  0
    5.2500    1.2990    0.0000 C   0  0  0  0  0  0  0  0  0  0  0  0
    6.0000    2.5981    0.0000 C   0  0  0  0  0  0  0  0  0  0  0  0
    7.5000    2.5981    0.0000 C   0  0  0  0  0  0  0  0  0  0  0  0
    8.2500    1.2990    0.0000 N   0  0  0  0  0  0  0  0  0  0  0  0
    9.7500    1.2990    0.0000 C   0  0  0  0  0  0  0  0  0  0  0  0
   10.5000   -0.0000    0.0000 C   0  0  0  0  0  0  0  0  0  0  0  0
   10.8119   -1.4672    0.0000 C   0  0  0  0  0  0  0  0  0  0  0  0
    9.5128   -2.2172    0.0000 C   0  0  0  0  0  0  0  0  0  0  0  0
    8.3981   -1.2135    0.0000 C   0  0  0  0  0  0  0  0  0  0  0  0
    7.5000   -0.0000    0.0000 C   0  0  0  0  0  0  0  0  0  0  0  0
    9.0082    0.1568    0.0000 N   0  0  0  0  0  0  0  0  0  0  0  0
    8.2500    3.8971    0.0000 C   0  0  0  0  0  0  0  0  0  0  0  0
    7.5000    5.1962    0.0000 C   0  0  0  0  0  0  0  0  0  0  0  0
    8.2500    6.4952    0.0000 O   0  0  0  0  0  0  0  0  0  0  0  0
    9.7500    6.4952    0.0000 C   0  0  0  0  0  0  0  0  0  0  0  0
   10.5000    7.7942    0.0000 C   0  0  0  0  0  0  0  0  0  0  0  0
    9.0328    8.1061    0.0000 C   0  0  0  0  0  0  0  0  0  0  0  0
    8.8760    9.5979    0.0000 C   0  0  0  0  0  0  0  0  0  0  0  0
   10.2463   10.2080    0.0000 C   0  0  0  0  0  0  0  0  0  0  0  0
   11.2500    9.0933    0.0000 N   0  0  0  0  0  0  0  0  0  0  0  0
   12.7172    8.7814    0.0000 C   0  0  0  0  0  0  0  0  0  0  0  0
   12.8740    7.2896    0.0000 C   0  0  0  0  0  0  0  0  0  0  0  0
   14.1731    6.5396    0.0000 F   0  0  0  0  0  0  0  0  0  0  0  0
   11.5037    6.6795    0.0000 C   0  0  0  0  0  0  0  0  0  0  0  0
    6.0000    5.1962    0.0000 N   0  0  0  0  0  0  0  0  0  0  0  0
    5.2500    3.8971    0.0000 C   0  0  0  0  0  0  0  0  0  0  0  0
    3.7500    3.8971    0.0000 C   0  0  0  0  0  0  0  0  0  0  0  0
    3.0000    5.1962    0.0000 F   0  0  0  0  0  0  0  0  0  0  0  0
    0.7500    1.2990    0.0000 C   0  0  0  0  0  0  0  0  0  0  0  0
  1  2  3  0
  2  3  1  0
  3  4  2  0
  4  5  1  0
  4  6  1  0
  6  7  2  0
  7  8  1  0
  8  9  2  0
  9 10  1  0
 10 11  1  0
 10 12  2  0
 12 13  1  0
 13 14  1  0
 14 15  2  0
 15 16  1  0
 16 17  2  0
 17 18  1  0
 18 19  1  0
 19 20  1  0
 20 21  1  0
 21 22  1  0
 22 23  1  0
 23 24  1  0
 24 25  1  0
 24 26  1  0
 18 27  2  0
 27 28  1  0
 28 29  1  0
 29 30  1  0
 31 30  1  1
 31 32  1  0
 32 33  1  0
 33 34  1  0
 34 35  1  0
 35 36  1  0
 36 37  1  0
 37 38  1  6
 37 39  1  0
 28 40  2  0
 40 41  1  0
 41 42  2  0
 42 43  1  0
 13 44  2  0
 44  3  1  0
 44  8  1  0
 42 14  1  0
 41 17  1  0
 25 19  1  0
 35 31  1  0
 26 21  1  0
 39 31  1  0
M  END
>  <molecule_chembl_id>  (337) 
CHEMBL5428155

>  <canonical_smiles>  (337) 
C#Cc1c(F)ccc2cc(O)cc(-c3ncc4c(N5CC6CCC(C5)N6)cc(OC[C@@]56CCCN5C[C@H](F)C6)nc4c3F)c12

>  <pchembl_value_mean>  (337) 
8.1

>  <inchi>  (337) 
InChI=1S/C34H32F3N5O2/c1-2-24-27(36)7-4-19-10-23(43)11-25(30(19)24)32-31(37)33-26(14-38-32)28(41-16-21-5-6-22(17-41)39-21)12-29(40-33)44-18-34-8-3-9-42(34)15-20(35)13-34/h1,4,7,10-12,14,20-22,39,43H,3,5-6,8-9,13,15-18H2/t20-,21?,22?,34+/m1/s1

$$$$

     RDKit          2D

147154  0  0  0  0  0  0  0  0999 V2000
  -15.0482    9.7925    0.0000 C   0  0  0  0  0  0  0  0  0  0  0  0
  -13.5723    9.5246    0.0000 C   0  0  0  0  0  0  0  0  0  0  0  0
  -12.6024   10.6689    0.0000 C   0  0  0  0  0  0  0  0  0  0  0  0
  -13.1084   12.0810    0.0000 C   0  0  0  0  0  0  0  0  0  0  0  0
  -11.1265   10.4011    0.0000 C   0  0  0  0  0  0  0  0  0  0  0  0
  -10.7274   11.8470    0.0000 N   0  0  0  0  0  0  0  0  0  0  0  0
  -10.0766   13.1984    0.0000 C   0  0  0  0  0  0  0  0  0  0  0  0
  -11.3643   13.9678    0.0000 O   0  0  0  0  0  0  0  0  0  0  0  0
   -9.1949   14.4120    0.0000 C   0  0  0  0  0  0  0  0  0  0  0  0
  -10.3245   15.3989    0.0000 C   0  0  0  0  0  0  0  0  0  0  0  0
  -11.7440   14.9141    0.0000 C   0  0  0  0  0  0  0  0  0  0  0  0
  -12.0339   13.4423    0.0000 C   0  0  0  0  0  0  0  0  0  0  0  0
  -13.4534   12.9575    0.0000 C   0  0  0  0  0  0  0  0  0  0  0  0
  -14.5830   13.9444    0.0000 C   0  0  0  0  0  0  0  0  0  0  0  0
  -16.0025   13.4596    0.0000 C   0  0  0  0  0  0  0  0  0  0  0  0
  -16.2924   11.9879    0.0000 C   0  0  0  0  0  0  0  0  0  0  0  0
  -17.7119   11.5031    0.0000 C   0  0  0  0  0  0  0  0  0  0  0  0
  -18.8415   12.4900    0.0000 C   0  0  0  0  0  0  0  0  0  0  0  0
  -18.5516   13.9617    0.0000 C   0  0  0  0  0  0  0  0  0  0  0  0
  -17.1321   14.4465    0.0000 C   0  0  0  0  0  0  0  0  0  0  0  0
  -14.2931   15.4162    0.0000 C   0  0  0  0  0  0  0  0  0  0  0  0
  -12.8736   15.9010    0.0000 C   0  0  0  0  0  0  0  0  0  0  0  0
   -8.1107   15.4486    0.0000 N   0  0  0  0  0  0  0  0  0  0  0  0
   -6.8589   16.2749    0.0000 C   0  0  0  0  0  0  0  0  0  0  0  0
   -7.5697   17.5958    0.0000 O   0  0  0  0  0  0  0  0  0  0  0  0
   -5.4796   16.8645    0.0000 C   0  0  0  0  0  0  0  0  0  0  0  0
   -5.9431   18.2910    0.0000 C   0  0  0  0  0  0  0  0  0  0  0  0
   -7.4103   18.6029    0.0000 C   0  0  0  0  0  0  0  0  0  0  0  0
   -8.6683   17.7859    0.0000 C   0  0  0  0  0  0  0  0  0  0  0  0
   -9.4853   19.0440    0.0000 C   0  0  0  0  0  0  0  0  0  0  0  0
   -8.2273   19.8609    0.0000 C   0  0  0  0  0  0  0  0  0  0  0  0
   -4.0172   17.1982    0.0000 N   0  0  0  0  0  0  0  0  0  0  0  0
   -2.5187   17.2655    0.0000 C   0  0  0  0  0  0  0  0  0  0  0  0
   -2.8160   18.7358    0.0000 O   0  0  0  0  0  0  0  0  0  0  0  0
   -1.0323   17.0642    0.0000 C   0  0  0  0  0  0  0  0  0  0  0  0
   -1.0323   18.5642    0.0000 C   0  0  0  0  0  0  0  0  0  0  0  0
   -2.2458   19.4459    0.0000 C   0  0  0  0  0  0  0  0  0  0  0  0
   -2.0890   20.9376    0.0000 C   0  0  0  0  0  0  0  0  0  0  0  0
   -3.3025   21.8193    0.0000 C   0  0  0  0  0  0  0  0  0  0  0  0
   -4.6729   21.2092    0.0000 C   0  0  0  0  0  0  0  0  0  0  0  0
   -4.8297   19.7174    0.0000 C   0  0  0  0  0  0  0  0  0  0  0  0
   -3.6161   18.8358    0.0000 C   0  0  0  0  0  0  0  0  0  0  0  0
    0.3943   19.0277    0.0000 C   0  0  0  0  0  0  0  0  0  0  0  0
    1.2760   17.8142    0.0000 C   0  0  0  0  0  0  0  0  0  0  0  0
    0.3943   16.6007    0.0000 N   0  0  0  0  0  0  0  0  0  0  0  0
    1.7152   15.8899    0.0000 C   0  0  0  0  0  0  0  0  0  0  0  0
    2.5415   17.1417    0.0000 O   0  0  0  0  0  0  0  0  0  0  0  0
    2.8879   14.9546    0.0000 C   0  0  0  0  0  0  0  0  0  0  0  0
    3.9245   16.0388    0.0000 N   0  0  0  0  0  0  0  0  0  0  0  0
    5.3818   15.6832    0.0000 C   0  0  0  0  0  0  0  0  0  0  0  0
    5.8024   14.2434    0.0000 O   0  0  0  0  0  0  0  0  0  0  0  0
    6.4184   16.7674    0.0000 C   0  0  0  0  0  0  0  0  0  0  0  0
    7.8756   16.4118    0.0000 C   0  0  0  0  0  0  0  0  0  0  0  0
    8.9122   17.4960    0.0000 C   0  0  0  0  0  0  0  0  0  0  0  0
   10.3694   17.1403    0.0000 C   0  0  0  0  0  0  0  0  0  0  0  0
   11.4060   18.2245    0.0000 N   0  0  0  0  0  0  0  0  0  0  0  0
   12.8633   17.8689    0.0000 C   0  0  0  0  0  0  0  0  0  0  0  0
   13.2839   16.4291    0.0000 N   0  0  0  0  0  0  0  0  0  0  0  0
   13.8998   18.9531    0.0000 N   0  0  0  0  0  0  0  0  0  0  0  0
    5.9977   18.2072    0.0000 N   0  0  0  0  0  0  0  0  0  0  0  0
    7.0343   19.2914    0.0000 C   0  0  0  0  0  0  0  0  0  0  0  0
    8.4915   18.9358    0.0000 O   0  0  0  0  0  0  0  0  0  0  0  0
    6.6137   20.7312    0.0000 C   0  0  0  0  0  0  0  0  0  0  0  0
    7.6503   21.8154    0.0000 C   0  0  0  0  0  0  0  0  0  0  0  0
    7.2296   23.2552    0.0000 C   0  0  0  0  0  0  0  0  0  0  0  0
    8.2662   24.3394    0.0000 C   0  0  0  0  0  0  0  0  0  0  0  0
    7.8456   25.7792    0.0000 N   0  0  0  0  0  0  0  0  0  0  0  0
    8.8822   26.8634    0.0000 C   0  0  0  0  0  0  0  0  0  0  0  0
   10.3394   26.5078    0.0000 N   0  0  0  0  0  0  0  0  0  0  0  0
    8.4615   28.3032    0.0000 N   0  0  0  0  0  0  0  0  0  0  0  0
    5.1564   21.0868    0.0000 N   0  0  0  0  0  0  0  0  0  0  0  0
    4.7358   22.5266    0.0000 C   0  0  0  0  0  0  0  0  0  0  0  0
    3.2786   22.8823    0.0000 C   0  0  0  0  0  0  0  0  0  0  0  0
    5.7724   23.6108    0.0000 O   0  0  0  0  0  0  0  0  0  0  0  0
    3.8748   13.8250    0.0000 C   0  0  0  0  0  0  0  0  0  0  0  0
    4.6442   12.5373    0.0000 S   0  0  0  0  0  0  0  0  0  0  0  0
    5.1713   11.1330    0.0000 S   0  0  0  0  0  0  0  0  0  0  0  0
    5.4391    9.6571    0.0000 C   0  0  0  0  0  0  0  0  0  0  0  0
    5.4391    8.1571    0.0000 C   0  0  0  0  0  0  0  0  0  0  0  0
    6.9331    8.0226    0.0000 C   0  0  0  0  0  0  0  0  0  0  0  0
    7.7965    9.2492    0.0000 O   0  0  0  0  0  0  0  0  0  0  0  0
    7.5636    6.6616    0.0000 N   0  0  0  0  0  0  0  0  0  0  0  0
    9.0576    6.5271    0.0000 C   0  0  0  0  0  0  0  0  0  0  0  0
    9.6881    5.1661    0.0000 C   0  0  0  0  0  0  0  0  0  0  0  0
   11.1820    5.0316    0.0000 C   0  0  0  0  0  0  0  0  0  0  0  0
   11.8126    3.6706    0.0000 C   0  0  0  0  0  0  0  0  0  0  0  0
   13.3065    3.5361    0.0000 N   0  0  0  0  0  0  0  0  0  0  0  0
   13.9371    2.1751    0.0000 C   0  0  0  0  0  0  0  0  0  0  0  0
   13.0737    0.9485    0.0000 N   0  0  0  0  0  0  0  0  0  0  0  0
   15.4310    2.0406    0.0000 N   0  0  0  0  0  0  0  0  0  0  0  0
    9.9210    7.7537    0.0000 C   0  0  0  0  0  0  0  0  0  0  0  0
    9.2904    9.1148    0.0000 O   0  0  0  0  0  0  0  0  0  0  0  0
   11.4149    7.6193    0.0000 N   0  0  0  0  0  0  0  0  0  0  0  0
   12.2784    8.8458    0.0000 C   0  0  0  0  0  0  0  0  0  0  0  0
   13.7723    8.7114    0.0000 C   0  0  0  0  0  0  0  0  0  0  0  0
   14.6358    9.9380    0.0000 C   0  0  0  0  0  0  0  0  0  0  0  0
   16.1297    9.8035    0.0000 C   0  0  0  0  0  0  0  0  0  0  0  0
   16.9931   11.0301    0.0000 N   0  0  0  0  0  0  0  0  0  0  0  0
   18.4871   10.8956    0.0000 C   0  0  0  0  0  0  0  0  0  0  0  0
   19.1176    9.5346    0.0000 N   0  0  0  0  0  0  0  0  0  0  0  0
   19.3505   12.1222    0.0000 N   0  0  0  0  0  0  0  0  0  0  0  0
   11.6478   10.2069    0.0000 C   0  0  0  0  0  0  0  0  0  0  0  0
   12.5113   11.4335    0.0000 N   0  0  0  0  0  0  0  0  0  0  0  0
   10.1539   10.3413    0.0000 O   0  0  0  0  0  0  0  0  0  0  0  0
    5.1713    6.6812    0.0000 N   0  0  0  0  0  0  0  0  0  0  0  0
    4.6442    5.2768    0.0000 C   0  0  0  0  0  0  0  0  0  0  0  0
    5.9956    4.6260    0.0000 O   0  0  0  0  0  0  0  0  0  0  0  0
    3.8748    3.9892    0.0000 C   0  0  0  0  0  0  0  0  0  0  0  0
    5.0884    3.1075    0.0000 C   0  0  0  0  0  0  0  0  0  0  0  0
    4.9316    1.6157    0.0000 C   0  0  0  0  0  0  0  0  0  0  0  0
    6.4587    3.7176    0.0000 C   0  0  0  0  0  0  0  0  0  0  0  0
    2.8879    2.8596    0.0000 N   0  0  0  0  0  0  0  0  0  0  0  0
    1.7152    1.9243    0.0000 C   0  0  0  0  0  0  0  0  0  0  0  0
    2.5415    0.6725    0.0000 O   0  0  0  0  0  0  0  0  0  0  0  0
    0.3943    1.2135    0.0000 C   0  0  0  0  0  0  0  0  0  0  0  0
    1.2760    0.0000    0.0000 C   0  0  0  0  0  0  0  0  0  0  0  0
    0.3943   -1.2135    0.0000 C   0  0  0  0  0  0  0  0  0  0  0  0
   -1.0323   -0.7500    0.0000 C   0  0  0  0  0  0  0  0  0  0  0  0
   -1.0323    0.7500    0.0000 N   0  0  0  0  0  0  0  0  0  0  0  0
   -2.5187    0.5487    0.0000 C   0  0  0  0  0  0  0  0  0  0  0  0
   -2.4514   -0.9498    0.0000 O   0  0  0  0  0  0  0  0  0  0  0  0
   -4.0172    0.6159    0.0000 C   0  0  0  0  0  0  0  0  0  0  0  0
   -4.2186   -0.8705    0.0000 C   0  0  0  0  0  0  0  0  0  0  0  0
   -5.6065   -1.4393    0.0000 C   0  0  0  0  0  0  0  0  0  0  0  0
   -6.7931   -0.5217    0.0000 O   0  0  0  0  0  0  0  0  0  0  0  0
   -5.8079   -2.9257    0.0000 O   0  0  0  0  0  0  0  0  0  0  0  0
   -5.4796    0.9497    0.0000 N   0  0  0  0  0  0  0  0  0  0  0  0
   -6.8589    1.5393    0.0000 C   0  0  0  0  0  0  0  0  0  0  0  0
   -7.5697    0.2184    0.0000 O   0  0  0  0  0  0  0  0  0  0  0  0
   -8.1107    2.3656    0.0000 C   0  0  0  0  0  0  0  0  0  0  0  0
   -9.0460    1.1929    0.0000 C   0  0  0  0  0  0  0  0  0  0  0  0
  -10.5292    1.4164    0.0000 C   0  0  0  0  0  0  0  0  0  0  0  0
  -11.0772    2.8127    0.0000 C   0  0  0  0  0  0  0  0  0  0  0  0
  -12.5605    3.0363    0.0000 C   0  0  0  0  0  0  0  0  0  0  0  0
  -13.4957    1.8636    0.0000 C   0  0  0  0  0  0  0  0  0  0  0  0
  -14.9790    2.0871    0.0000 O   0  0  0  0  0  0  0  0  0  0  0  0
  -12.9477    0.4672    0.0000 C   0  0  0  0  0  0  0  0  0  0  0  0
  -11.4645    0.2437    0.0000 C   0  0  0  0  0  0  0  0  0  0  0  0
   -9.1949    3.4022    0.0000 N   0  0  0  0  0  0  0  0  0  0  0  0
  -10.0766    4.6157    0.0000 C   0  0  0  0  0  0  0  0  0  0  0  0
  -11.3643    3.8464    0.0000 O   0  0  0  0  0  0  0  0  0  0  0  0
  -10.7274    5.9672    0.0000 C   0  0  0  0  0  0  0  0  0  0  0  0
  -12.1318    5.4401    0.0000 C   0  0  0  0  0  0  0  0  0  0  0  0
  -13.2904    6.3928    0.0000 O   0  0  0  0  0  0  0  0  0  0  0  0
  -11.1265    7.4131    0.0000 N   0  0  0  0  0  0  0  0  0  0  0  0
  -11.2610    8.9071    0.0000 C   0  0  0  0  0  0  0  0  0  0  0  0
  -12.7610    8.9071    0.0000 O   0  0  0  0  0  0  0  0  0  0  0  0
  1  2  1  0
  2  3  1  0
  3  4  1  6
  3  5  1  0
  5  6  1  6
  6  7  1  0
  7  8  2  0
  7  9  1  0
  9 10  1  6
 10 11  1  0
 11 12  2  0
 12 13  1  0
 13 14  2  0
 14 15  1  0
 15 16  2  0
 16 17  1  0
 17 18  2  0
 18 19  1  0
 19 20  2  0
 14 21  1  0
 21 22  2  0
  9 23  1  0
 23 24  1  0
 24 25  2  0
 24 26  1  0
 26 27  1  6
 27 28  1  0
 28 29  1  0
 29 30  1  0
 30 31  1  0
 26 32  1  0
 32 33  1  0
 33 34  2  0
 35 33  1  6
 35 36  1  0
 36 37  1  1
 37 38  2  0
 38 39  1  0
 39 40  2  0
 40 41  1  0
 41 42  2  0
 36 43  1  0
 43 44  1  0
 44 45  1  0
 45 46  1  0
 46 47  2  0
 46 48  1  0
 48 49  1  1
 49 50  1  0
 50 51  2  0
 50 52  1  0
 52 53  1  1
 53 54  1  0
 54 55  1  0
 55 56  1  0
 56 57  1  0
 57 58  2  0
 57 59  1  0
 52 60  1  0
 60 61  1  0
 61 62  2  0
 61 63  1  0
 63 64  1  1
 64 65  1  0
 65 66  1  0
 66 67  1  0
 67 68  1  0
 68 69  2  0
 68 70  1  0
 63 71  1  0
 71 72  1  0
 72 73  1  0
 72 74  2  0
 48 75  1  0
 75 76  1  0
 76 77  1  0
 77 78  1  0
 78 79  1  0
 79 80  1  1
 80 81  2  0
 80 82  1  0
 82 83  1  0
 83 84  1  6
 84 85  1  0
 85 86  1  0
 86 87  1  0
 87 88  1  0
 88 89  2  0
 88 90  1  0
 83 91  1  0
 91 92  2  0
 91 93  1  0
 93 94  1  0
 94 95  1  6
 95 96  1  0
 96 97  1  0
 97 98  1  0
 98 99  1  0
 99100  2  0
 99101  1  0
 94102  1  0
102103  1  0
102104  2  0
 79105  1  0
105106  1  0
106107  2  0
106108  1  0
108109  1  6
109110  1  0
109111  1  0
108112  1  0
112113  1  0
113114  2  0
113115  1  0
115116  1  6
116117  1  0
117118  1  0
118119  1  0
119120  1  0
120121  2  0
120122  1  0
122123  1  6
123124  1  0
124125  2  0
124126  1  0
122127  1  0
127128  1  0
128129  2  0
128130  1  0
130131  1  6
131132  1  0
132133  2  0
133134  1  0
134135  2  0
135136  1  0
135137  1  0
137138  2  0
130139  1  0
139140  1  0
140141  2  0
140142  1  0
142143  1  6
143144  1  0
142145  1  0
145146  1  0
146147  2  0
146  5  1  0
 22 11  1  0
 31 28  1  0
 45 35  1  0
119115  1  0
138132  1  0
 20 15  1  0
 42 37  1  0
M  END
>  <molecule_chembl_id>  (338) 
CHEMBL5171215

>  <canonical_smiles>  (338) 
CC[C@H](C)[C@@H]1NC(=O)[C@H](Cc2ccc(-c3ccccc3)cc2)NC(=O)[C@H](CC2CCC2)NC(=O)[C@@H]2[C@@H](c3ccccc3)CCN2C(=O)[C@@H](NC(=O)[C@H](CCCNC(=N)N)NC(=O)[C@H](CCCNC(=N)N)NC(C)=O)CSSC[C@@H](C(=O)N[C@@H](CCCNC(=N)N)C(=O)N[C@@H](CCCNC(=N)N)C(N)=O)NC(=O)[C@H](C(C)C)NC(=O)[C@@H]2CCCN2C(=O)[C@H](CC(=O)O)NC(=O)[C@H](Cc2ccc(O)cc2)NC(=O)[C@H](CO)NC1=O

>  <pchembl_value_mean>  (338) 
8.15

>  <inchi>  (338) 
InChI=1S/C97H142N28O20S2/c1-6-53(4)77-90(142)119-71(49-126)86(138)116-67(47-57-32-36-61(128)37-33-57)84(136)118-70(48-75(129)130)92(144)124-43-18-29-74(124)88(140)122-76(52(2)3)89(141)120-72(87(139)114-65(27-16-41-109-96(103)104)81(133)112-63(79(98)131)25-14-39-107-94(99)100)50-146-147-51-73(121-82(134)66(28-17-42-110-97(105)106)113-80(132)64(111-54(5)127)26-15-40-108-95(101)102)93(145)125-44-38-62(60-23-11-8-12-24-60)78(125)91(143)117-68(45-55-19-13-20-55)83(135)115-69(85(137)123-77)46-56-30-34-59(35-31-56)58-21-9-7-10-22-58/h7-12,21-24,30-37,52-53,55,62-74,76-78,126,128H,6,13-20,25-29,38-51H2,1-5H3,(H2,98,131)(H,111,127)(H,112,133)(H,113,132)(H,114,139)(H,115,135)(H,116,138)(H,117,143)(H,118,136)(H,119,142)(H,120,141)(H,121,134)(H,122,140)(H,123,137)(H,129,130)(H4,99,100,107)(H4,101,102,108)(H4,103,104,109)(H4,105,106,110)/t53-,62+,63-,64-,65-,66-,67-,68-,69-,70-,71-,72-,73-,74-,76-,77-,78-/m0/s1

$$$$

     RDKit          2D

140145  0  0  0  0  0  0  0  0999 V2000
    7.4592   15.3348    0.0000 C   0  0  0  0  0  0  0  0  0  0  0  0
    6.1077   14.6840    0.0000 C   0  0  0  0  0  0  0  0  0  0  0  0
    5.9956   13.1882    0.0000 C   0  0  0  0  0  0  0  0  0  0  0  0
    7.2350   12.3432    0.0000 C   0  0  0  0  0  0  0  0  0  0  0  0
    4.6442   12.5373    0.0000 C   0  0  0  0  0  0  0  0  0  0  0  0
    5.1713   11.1330    0.0000 N   0  0  0  0  0  0  0  0  0  0  0  0
    5.4391    9.6571    0.0000 C   0  0  0  0  0  0  0  0  0  0  0  0
    6.9331    9.7915    0.0000 O   0  0  0  0  0  0  0  0  0  0  0  0
    5.4391    8.1571    0.0000 C   0  0  0  0  0  0  0  0  0  0  0  0
    6.9331    8.0226    0.0000 C   0  0  0  0  0  0  0  0  0  0  0  0
    7.5636    6.6616    0.0000 C   0  0  0  0  0  0  0  0  0  0  0  0
    6.7002    5.4350    0.0000 C   0  0  0  0  0  0  0  0  0  0  0  0
    7.3307    4.0740    0.0000 C   0  0  0  0  0  0  0  0  0  0  0  0
    8.8247    3.9395    0.0000 C   0  0  0  0  0  0  0  0  0  0  0  0
    9.4552    2.5785    0.0000 C   0  0  0  0  0  0  0  0  0  0  0  0
    8.5918    1.3519    0.0000 C   0  0  0  0  0  0  0  0  0  0  0  0
    9.2223   -0.0091    0.0000 C   0  0  0  0  0  0  0  0  0  0  0  0
   10.7163   -0.1436    0.0000 C   0  0  0  0  0  0  0  0  0  0  0  0
   11.5797    1.0830    0.0000 C   0  0  0  0  0  0  0  0  0  0  0  0
   10.9492    2.4440    0.0000 C   0  0  0  0  0  0  0  0  0  0  0  0
    9.6881    5.1661    0.0000 C   0  0  0  0  0  0  0  0  0  0  0  0
    9.0576    6.5271    0.0000 C   0  0  0  0  0  0  0  0  0  0  0  0
    5.1713    6.6812    0.0000 N   0  0  0  0  0  0  0  0  0  0  0  0
    4.6442    5.2768    0.0000 C   0  0  0  0  0  0  0  0  0  0  0  0
    5.9956    4.6260    0.0000 O   0  0  0  0  0  0  0  0  0  0  0  0
    3.8748    3.9892    0.0000 C   0  0  0  0  0  0  0  0  0  0  0  0
    5.0884    3.1075    0.0000 C   0  0  0  0  0  0  0  0  0  0  0  0
    4.9316    1.6157    0.0000 C   0  0  0  0  0  0  0  0  0  0  0  0
    6.1451    0.7340    0.0000 C   0  0  0  0  0  0  0  0  0  0  0  0
    3.5613    1.0056    0.0000 C   0  0  0  0  0  0  0  0  0  0  0  0
    2.8879    2.8596    0.0000 N   0  0  0  0  0  0  0  0  0  0  0  0
    1.7152    1.9243    0.0000 C   0  0  0  0  0  0  0  0  0  0  0  0
    2.5415    0.6725    0.0000 O   0  0  0  0  0  0  0  0  0  0  0  0
    0.3943    1.2135    0.0000 C   0  0  0  0  0  0  0  0  0  0  0  0
    1.2760    0.0000    0.0000 C   0  0  0  0  0  0  0  0  0  0  0  0
    0.3943   -1.2135    0.0000 C   0  0  0  0  0  0  0  0  0  0  0  0
   -1.0323   -0.7500    0.0000 C   0  0  0  0  0  0  0  0  0  0  0  0
   -1.0323    0.7500    0.0000 N   0  0  0  0  0  0  0  0  0  0  0  0
   -2.5187    0.5487    0.0000 C   0  0  0  0  0  0  0  0  0  0  0  0
   -2.4514   -0.9498    0.0000 O   0  0  0  0  0  0  0  0  0  0  0  0
   -4.0172    0.6159    0.0000 C   0  0  0  0  0  0  0  0  0  0  0  0
   -4.2186   -0.8705    0.0000 N   0  0  0  0  0  0  0  0  0  0  0  0
   -5.6065   -1.4393    0.0000 C   0  0  0  0  0  0  0  0  0  0  0  0
   -6.7931   -0.5217    0.0000 O   0  0  0  0  0  0  0  0  0  0  0  0
   -5.8079   -2.9257    0.0000 C   0  0  0  0  0  0  0  0  0  0  0  0
   -7.1958   -3.4946    0.0000 C   0  0  0  0  0  0  0  0  0  0  0  0
   -7.3972   -4.9810    0.0000 C   0  0  0  0  0  0  0  0  0  0  0  0
   -8.7851   -5.5498    0.0000 C   0  0  0  0  0  0  0  0  0  0  0  0
   -8.9865   -7.0363    0.0000 N   0  0  0  0  0  0  0  0  0  0  0  0
  -10.3744   -7.6051    0.0000 C   0  0  0  0  0  0  0  0  0  0  0  0
  -11.5610   -6.6875    0.0000 N   0  0  0  0  0  0  0  0  0  0  0  0
  -10.5758   -9.0915    0.0000 N   0  0  0  0  0  0  0  0  0  0  0  0
   -4.6213   -3.8433    0.0000 N   0  0  0  0  0  0  0  0  0  0  0  0
   -4.8226   -5.3298    0.0000 C   0  0  0  0  0  0  0  0  0  0  0  0
   -6.2106   -5.8986    0.0000 O   0  0  0  0  0  0  0  0  0  0  0  0
   -3.6360   -6.2473    0.0000 C   0  0  0  0  0  0  0  0  0  0  0  0
   -3.8373   -7.7338    0.0000 C   0  0  0  0  0  0  0  0  0  0  0  0
   -2.6507   -8.6513    0.0000 C   0  0  0  0  0  0  0  0  0  0  0  0
   -2.8521  -10.1378    0.0000 C   0  0  0  0  0  0  0  0  0  0  0  0
   -1.6655  -11.0554    0.0000 N   0  0  0  0  0  0  0  0  0  0  0  0
   -1.8668  -12.5418    0.0000 C   0  0  0  0  0  0  0  0  0  0  0  0
   -3.2548  -13.1106    0.0000 N   0  0  0  0  0  0  0  0  0  0  0  0
   -0.6802  -13.4594    0.0000 N   0  0  0  0  0  0  0  0  0  0  0  0
   -2.2480   -5.6785    0.0000 N   0  0  0  0  0  0  0  0  0  0  0  0
   -1.0614   -6.5961    0.0000 C   0  0  0  0  0  0  0  0  0  0  0  0
    0.3265   -6.0272    0.0000 C   0  0  0  0  0  0  0  0  0  0  0  0
   -1.2628   -8.0825    0.0000 O   0  0  0  0  0  0  0  0  0  0  0  0
   -5.4796    0.9497    0.0000 C   0  0  0  0  0  0  0  0  0  0  0  0
   -6.8589    1.5393    0.0000 S   0  0  0  0  0  0  0  0  0  0  0  0
   -8.1107    2.3656    0.0000 S   0  0  0  0  0  0  0  0  0  0  0  0
   -9.1949    3.4022    0.0000 C   0  0  0  0  0  0  0  0  0  0  0  0
  -10.0766    4.6157    0.0000 C   0  0  0  0  0  0  0  0  0  0  0  0
  -11.3643    3.8464    0.0000 C   0  0  0  0  0  0  0  0  0  0  0  0
  -11.3418    2.3466    0.0000 O   0  0  0  0  0  0  0  0  0  0  0  0
  -12.6744    4.5769    0.0000 N   0  0  0  0  0  0  0  0  0  0  0  0
  -13.9621    3.8075    0.0000 C   0  0  0  0  0  0  0  0  0  0  0  0
  -15.2722    4.5380    0.0000 C   0  0  0  0  0  0  0  0  0  0  0  0
  -16.5599    3.7687    0.0000 C   0  0  0  0  0  0  0  0  0  0  0  0
  -17.8700    4.4991    0.0000 C   0  0  0  0  0  0  0  0  0  0  0  0
  -19.1576    3.7298    0.0000 N   0  0  0  0  0  0  0  0  0  0  0  0
  -20.4678    4.4603    0.0000 C   0  0  0  0  0  0  0  0  0  0  0  0
  -20.4902    5.9601    0.0000 N   0  0  0  0  0  0  0  0  0  0  0  0
  -21.7554    3.6909    0.0000 N   0  0  0  0  0  0  0  0  0  0  0  0
  -13.9396    2.3077    0.0000 C   0  0  0  0  0  0  0  0  0  0  0  0
  -12.6295    1.5772    0.0000 O   0  0  0  0  0  0  0  0  0  0  0  0
  -15.2273    1.5383    0.0000 N   0  0  0  0  0  0  0  0  0  0  0  0
  -15.2049    0.0385    0.0000 C   0  0  0  0  0  0  0  0  0  0  0  0
  -16.4925   -0.7308    0.0000 C   0  0  0  0  0  0  0  0  0  0  0  0
  -16.4701   -2.2307    0.0000 C   0  0  0  0  0  0  0  0  0  0  0  0
  -17.7578   -3.0000    0.0000 C   0  0  0  0  0  0  0  0  0  0  0  0
  -17.7353   -4.4999    0.0000 N   0  0  0  0  0  0  0  0  0  0  0  0
  -19.0230   -5.2692    0.0000 C   0  0  0  0  0  0  0  0  0  0  0  0
  -20.3331   -4.5387    0.0000 N   0  0  0  0  0  0  0  0  0  0  0  0
  -19.0006   -6.7690    0.0000 N   0  0  0  0  0  0  0  0  0  0  0  0
  -13.8948   -0.6920    0.0000 C   0  0  0  0  0  0  0  0  0  0  0  0
  -13.8723   -2.1918    0.0000 N   0  0  0  0  0  0  0  0  0  0  0  0
  -12.6071    0.0774    0.0000 O   0  0  0  0  0  0  0  0  0  0  0  0
  -10.7274    5.9672    0.0000 N   0  0  0  0  0  0  0  0  0  0  0  0
  -11.1265    7.4131    0.0000 C   0  0  0  0  0  0  0  0  0  0  0  0
  -12.6024    7.1453    0.0000 O   0  0  0  0  0  0  0  0  0  0  0  0
  -11.2610    8.9071    0.0000 C   0  0  0  0  0  0  0  0  0  0  0  0
  -12.7610    8.9071    0.0000 C   0  0  0  0  0  0  0  0  0  0  0  0
  -13.5110   10.2061    0.0000 C   0  0  0  0  0  0  0  0  0  0  0  0
  -13.5110    7.6081    0.0000 C   0  0  0  0  0  0  0  0  0  0  0  0
  -11.1265   10.4011    0.0000 N   0  0  0  0  0  0  0  0  0  0  0  0
  -10.7274   11.8470    0.0000 C   0  0  0  0  0  0  0  0  0  0  0  0
  -12.1318   12.3741    0.0000 O   0  0  0  0  0  0  0  0  0  0  0  0
  -10.0766   13.1984    0.0000 C   0  0  0  0  0  0  0  0  0  0  0  0
  -11.5032   13.6620    0.0000 C   0  0  0  0  0  0  0  0  0  0  0  0
  -11.5032   15.1620    0.0000 C   0  0  0  0  0  0  0  0  0  0  0  0
  -10.0766   15.6255    0.0000 C   0  0  0  0  0  0  0  0  0  0  0  0
   -9.1949   14.4120    0.0000 N   0  0  0  0  0  0  0  0  0  0  0  0
   -8.1107   15.4486    0.0000 C   0  0  0  0  0  0  0  0  0  0  0  0
   -9.0460   16.6213    0.0000 O   0  0  0  0  0  0  0  0  0  0  0  0
   -6.8589   16.2749    0.0000 C   0  0  0  0  0  0  0  0  0  0  0  0
   -7.5697   17.5958    0.0000 C   0  0  0  0  0  0  0  0  0  0  0  0
   -6.7812   18.8718    0.0000 C   0  0  0  0  0  0  0  0  0  0  0  0
   -5.2818   18.8270    0.0000 O   0  0  0  0  0  0  0  0  0  0  0  0
   -7.4920   20.1927    0.0000 O   0  0  0  0  0  0  0  0  0  0  0  0
   -5.4796   16.8645    0.0000 N   0  0  0  0  0  0  0  0  0  0  0  0
   -4.0172   17.1982    0.0000 C   0  0  0  0  0  0  0  0  0  0  0  0
   -4.2186   18.6847    0.0000 O   0  0  0  0  0  0  0  0  0  0  0  0
   -2.5187   17.2655    0.0000 C   0  0  0  0  0  0  0  0  0  0  0  0
   -2.4514   18.7640    0.0000 C   0  0  0  0  0  0  0  0  0  0  0  0
   -1.1200   19.4550    0.0000 C   0  0  0  0  0  0  0  0  0  0  0  0
    0.1440   18.6475    0.0000 C   0  0  0  0  0  0  0  0  0  0  0  0
    1.4754   19.3384    0.0000 C   0  0  0  0  0  0  0  0  0  0  0  0
    1.5427   20.8369    0.0000 C   0  0  0  0  0  0  0  0  0  0  0  0
    2.8741   21.5279    0.0000 O   0  0  0  0  0  0  0  0  0  0  0  0
    0.2786   21.6444    0.0000 C   0  0  0  0  0  0  0  0  0  0  0  0
   -1.0527   20.9535    0.0000 C   0  0  0  0  0  0  0  0  0  0  0  0
   -1.0323   17.0642    0.0000 N   0  0  0  0  0  0  0  0  0  0  0  0
    0.3943   16.6007    0.0000 C   0  0  0  0  0  0  0  0  0  0  0  0
    0.9838   17.9799    0.0000 O   0  0  0  0  0  0  0  0  0  0  0  0
    1.7152   15.8899    0.0000 C   0  0  0  0  0  0  0  0  0  0  0  0
    2.5415   17.1417    0.0000 C   0  0  0  0  0  0  0  0  0  0  0  0
    4.0389   17.0520    0.0000 O   0  0  0  0  0  0  0  0  0  0  0  0
    2.8879   14.9546    0.0000 N   0  0  0  0  0  0  0  0  0  0  0  0
    3.8748   13.8250    0.0000 C   0  0  0  0  0  0  0  0  0  0  0  0
    5.0884   14.7067    0.0000 O   0  0  0  0  0  0  0  0  0  0  0  0
  1  2  1  0
  2  3  1  0
  3  4  1  6
  3  5  1  0
  5  6  1  6
  6  7  1  0
  7  8  2  0
  7  9  1  0
  9 10  1  6
 10 11  1  0
 11 12  2  0
 12 13  1  0
 13 14  2  0
 14 15  1  0
 15 16  2  0
 16 17  1  0
 17 18  2  0
 18 19  1  0
 19 20  2  0
 14 21  1  0
 21 22  2  0
  9 23  1  0
 23 24  1  0
 24 25  2  0
 24 26  1  0
 26 27  1  6
 27 28  1  0
 28 29  1  0
 28 30  1  0
 26 31  1  0
 31 32  1  0
 32 33  2  0
 32 34  1  0
 34 35  1  6
 35 36  1  0
 36 37  1  0
 37 38  1  0
 38 39  1  0
 39 40  2  0
 39 41  1  0
 41 42  1  1
 42 43  1  0
 43 44  2  0
 43 45  1  0
 45 46  1  1
 46 47  1  0
 47 48  1  0
 48 49  1  0
 49 50  1  0
 50 51  2  0
 50 52  1  0
 45 53  1  0
 53 54  1  0
 54 55  2  0
 54 56  1  0
 56 57  1  1
 57 58  1  0
 58 59  1  0
 59 60  1  0
 60 61  1  0
 61 62  2  0
 61 63  1  0
 56 64  1  0
 64 65  1  0
 65 66  1  0
 65 67  2  0
 41 68  1  0
 68 69  1  0
 69 70  1  0
 70 71  1  0
 71 72  1  0
 72 73  1  1
 73 74  2  0
 73 75  1  0
 75 76  1  0
 76 77  1  6
 77 78  1  0
 78 79  1  0
 79 80  1  0
 80 81  1  0
 81 82  2  0
 81 83  1  0
 76 84  1  0
 84 85  2  0
 84 86  1  0
 86 87  1  0
 87 88  1  6
 88 89  1  0
 89 90  1  0
 90 91  1  0
 91 92  1  0
 92 93  2  0
 92 94  1  0
 87 95  1  0
 95 96  1  0
 95 97  2  0
 72 98  1  0
 98 99  1  0
 99100  2  0
 99101  1  0
101102  1  6
102103  1  0
102104  1  0
101105  1  0
105106  1  0
106107  2  0
106108  1  0
108109  1  6
109110  1  0
110111  1  0
111112  1  0
112113  1  0
113114  2  0
113115  1  0
115116  1  6
116117  1  0
117118  2  0
117119  1  0
115120  1  0
120121  1  0
121122  2  0
121123  1  0
123124  1  6
124125  1  0
125126  2  0
126127  1  0
127128  2  0
128129  1  0
128130  1  0
130131  2  0
123132  1  0
132133  1  0
133134  2  0
133135  1  0
135136  1  6
136137  1  0
135138  1  0
138139  1  0
139140  2  0
139  5  1  0
 22 11  1  0
 38 34  1  0
112108  1  0
131125  1  0
 20 15  1  0
M  END
>  <molecule_chembl_id>  (339) 
CHEMBL5169881

>  <canonical_smiles>  (339) 
CC[C@H](C)[C@@H]1NC(=O)[C@H](Cc2ccc(-c3ccccc3)cc2)NC(=O)[C@H](CC(C)C)NC(=O)[C@@H]2CCCN2C(=O)[C@@H](NC(=O)[C@H](CCCNC(=N)N)NC(=O)[C@H](CCCNC(=N)N)NC(C)=O)CSSC[C@@H](C(=O)N[C@@H](CCCNC(=N)N)C(=O)N[C@@H](CCCNC(=N)N)C(N)=O)NC(=O)[C@H](C(C)C)NC(=O)[C@@H]2CCCN2C(=O)[C@H](CC(=O)O)NC(=O)[C@H](Cc2ccc(O)cc2)NC(=O)[C@H](CO)NC1=O

>  <pchembl_value_mean>  (339) 
8.15

>  <inchi>  (339) 
InChI=1S/C90H138N28O20S2/c1-8-49(6)71-84(136)112-64(44-119)79(131)109-61(42-52-28-32-55(121)33-29-52)77(129)111-63(43-69(122)123)85(137)117-38-17-25-68(117)82(134)115-70(48(4)5)83(135)113-65(80(132)107-58(22-14-36-102-89(96)97)74(126)105-56(72(91)124)20-12-34-100-87(92)93)45-139-140-46-66(114-75(127)59(23-15-37-103-90(98)99)106-73(125)57(104-50(7)120)21-13-35-101-88(94)95)86(138)118-39-16-24-67(118)81(133)110-60(40-47(2)3)76(128)108-62(78(130)116-71)41-51-26-30-54(31-27-51)53-18-10-9-11-19-53/h9-11,18-19,26-33,47-49,56-68,70-71,119,121H,8,12-17,20-25,34-46H2,1-7H3,(H2,91,124)(H,104,120)(H,105,126)(H,106,125)(H,107,132)(H,108,128)(H,109,131)(H,110,133)(H,111,129)(H,112,136)(H,113,135)(H,114,127)(H,115,134)(H,116,130)(H,122,123)(H4,92,93,100)(H4,94,95,101)(H4,96,97,102)(H4,98,99,103)/t49-,56-,57-,58-,59-,60-,61-,62-,63-,64-,65-,66-,67-,68-,70-,71-/m0/s1

$$$$

     RDKit          2D

 47 52  0  0  0  0  0  0  0  0999 V2000
    9.7500   -3.8971    0.0000 C   0  0  0  0  0  0  0  0  0  0  0  0
    8.2500   -3.8971    0.0000 C   0  0  0  0  0  0  0  0  0  0  0  0
    7.5000   -2.5981    0.0000 C   0  0  0  0  0  0  0  0  0  0  0  0
    8.2500   -1.2990    0.0000 O   0  0  0  0  0  0  0  0  0  0  0  0
    6.0000   -2.5981    0.0000 N   0  0  0  0  0  0  0  0  0  0  0  0
    5.2500   -3.8971    0.0000 C   0  0  0  0  0  0  0  0  0  0  0  0
    3.7500   -3.8971    0.0000 C   0  0  0  0  0  0  0  0  0  0  0  0
    3.0000   -2.5981    0.0000 N   0  0  0  0  0  0  0  0  0  0  0  0
    1.5000   -2.5981    0.0000 C   0  0  0  0  0  0  0  0  0  0  0  0
    0.7500   -3.8971    0.0000 C   0  0  0  0  0  0  0  0  0  0  0  0
   -0.7500   -3.8971    0.0000 C   0  0  0  0  0  0  0  0  0  0  0  0
   -1.5000   -5.1962    0.0000 C   0  0  0  0  0  0  0  0  0  0  0  0
   -0.7500   -6.4952    0.0000 O   0  0  0  0  0  0  0  0  0  0  0  0
   -3.0000   -5.1962    0.0000 N   0  0  0  0  0  0  0  0  0  0  0  0
   -3.7500   -6.4952    0.0000 C   0  0  0  0  0  0  0  0  0  0  0  0
   -5.2500   -6.4952    0.0000 C   0  0  0  0  0  0  0  0  0  0  0  0
   -3.0000   -7.7942    0.0000 C   0  0  0  0  0  0  0  0  0  0  0  0
   -3.7500   -9.0933    0.0000 N   0  0  0  0  0  0  0  0  0  0  0  0
   -3.1399  -10.4636    0.0000 C   0  0  0  0  0  0  0  0  0  0  0  0
   -4.2546  -11.4673    0.0000 C   0  0  0  0  0  0  0  0  0  0  0  0
   -5.5537  -10.7173    0.0000 C   0  0  0  0  0  0  0  0  0  0  0  0
   -6.1638  -12.0876    0.0000 C   0  0  0  0  0  0  0  0  0  0  0  0
   -6.9802  -10.2538    0.0000 O   0  0  0  0  0  0  0  0  0  0  0  0
   -5.2418   -9.2501    0.0000 C   0  0  0  0  0  0  0  0  0  0  0  0
   -1.5000   -2.5981    0.0000 N   0  0  0  0  0  0  0  0  0  0  0  0
   -0.7500   -1.2990    0.0000 C   0  0  0  0  0  0  0  0  0  0  0  0
    0.7500   -1.2990    0.0000 C   0  0  0  0  0  0  0  0  0  0  0  0
    1.5000    0.0000    0.0000 C   0  0  0  0  0  0  0  0  0  0  0  0
    0.7500    1.2990    0.0000 C   0  0  0  0  0  0  0  0  0  0  0  0
   -0.7500    1.2990    0.0000 N   0  0  0  0  0  0  0  0  0  0  0  0
   -1.5000    2.5981    0.0000 C   0  0  0  0  0  0  0  0  0  0  0  0
   -3.0000    2.5981    0.0000 C   0  0  0  0  0  0  0  0  0  0  0  0
   -3.7500    3.8971    0.0000 C   0  0  0  0  0  0  0  0  0  0  0  0
   -3.0000    5.1962    0.0000 C   0  0  0  0  0  0  0  0  0  0  0  0
   -1.5000    5.1962    0.0000 C   0  0  0  0  0  0  0  0  0  0  0  0
   -0.7500    6.4952    0.0000 C   0  0  0  0  0  0  0  0  0  0  0  0
    0.7500    6.4952    0.0000 C   0  0  0  0  0  0  0  0  0  0  0  0
    1.5000    5.1962    0.0000 C   0  0  0  0  0  0  0  0  0  0  0  0
    0.7500    3.8971    0.0000 C   0  0  0  0  0  0  0  0  0  0  0  0
    1.5000    2.5981    0.0000 C   0  0  0  0  0  0  0  0  0  0  0  0
   -0.7500    3.8971    0.0000 C   0  0  0  0  0  0  0  0  0  0  0  0
   -1.5000    0.0000    0.0000 C   0  0  0  0  0  0  0  0  0  0  0  0
    3.7500   -1.2990    0.0000 C   0  0  0  0  0  0  0  0  0  0  0  0
    5.2500   -1.2990    0.0000 C   0  0  0  0  0  0  0  0  0  0  0  0
    6.0000   -0.0000    0.0000 C   0  0  0  0  0  0  0  0  0  0  0  0
    5.2500    1.2990    0.0000 C   0  0  0  0  0  0  0  0  0  0  0  0
    4.5000    2.5981    0.0000 N   0  0  0  0  0  0  0  0  0  0  0  0
  1  2  2  0
  2  3  1  0
  3  4  2  0
  3  5  1  0
  5  6  1  0
  6  7  1  0
  7  8  1  0
  8  9  1  0
  9 10  2  0
 10 11  1  0
 11 12  1  0
 12 13  2  0
 12 14  1  0
 14 15  1  0
 15 16  1  0
 15 17  1  0
 17 18  1  0
 18 19  1  0
 19 20  1  0
 20 21  1  0
 21 22  1  0
 21 23  1  0
 21 24  1  0
 11 25  2  0
 25 26  1  0
 26 27  2  0
 27 28  1  0
 28 29  1  0
 29 30  1  0
 30 31  1  0
 31 32  2  0
 32 33  1  0
 33 34  2  0
 34 35  1  0
 35 36  2  0
 36 37  1  0
 37 38  2  0
 38 39  1  0
 39 40  1  0
 39 41  2  0
 30 42  1  0
  8 43  1  0
 43 44  1  0
 44 45  1  6
 45 46  1  0
 46 47  3  0
 44  5  1  0
 27  9  1  0
 41 31  1  0
 24 18  1  0
 42 26  1  0
 41 35  1  0
M  END
>  <molecule_chembl_id>  (340) 
CHEMBL4846583

>  <canonical_smiles>  (340) 
C=CC(=O)N1CCN(c2cc(C(=O)NC(C)CN3CCC(C)(O)C3)nc3c2CCN(c2cccc4cccc(C)c24)C3)C[C@@H]1CC#N

>  <pchembl_value_mean>  (340) 
8.175

>  <inchi>  (340) 
InChI=1S/C37H45N7O3/c1-5-34(45)44-19-18-43(22-28(44)12-15-38)33-20-30(36(46)39-26(3)21-41-17-14-37(4,47)24-41)40-31-23-42(16-13-29(31)33)32-11-7-10-27-9-6-8-25(2)35(27)32/h5-11,20,26,28,47H,1,12-14,16-19,21-24H2,2-4H3,(H,39,46)/t26?,28-,37?/m0/s1

$$$$

     RDKit          2D

 43 48  0  0  0  0  0  0  0  0999 V2000
    9.7500   -3.8971    0.0000 C   0  0  0  0  0  0  0  0  0  0  0  0
    8.2500   -3.8971    0.0000 C   0  0  0  0  0  0  0  0  0  0  0  0
    7.5000   -2.5981    0.0000 C   0  0  0  0  0  0  0  0  0  0  0  0
    8.2500   -1.2990    0.0000 O   0  0  0  0  0  0  0  0  0  0  0  0
    6.0000   -2.5981    0.0000 N   0  0  0  0  0  0  0  0  0  0  0  0
    5.2500   -3.8971    0.0000 C   0  0  0  0  0  0  0  0  0  0  0  0
    3.7500   -3.8971    0.0000 C   0  0  0  0  0  0  0  0  0  0  0  0
    3.0000   -2.5981    0.0000 N   0  0  0  0  0  0  0  0  0  0  0  0
    1.5000   -2.5981    0.0000 C   0  0  0  0  0  0  0  0  0  0  0  0
    0.7500   -3.8971    0.0000 C   0  0  0  0  0  0  0  0  0  0  0  0
   -0.7500   -3.8971    0.0000 C   0  0  0  0  0  0  0  0  0  0  0  0
   -1.5000   -5.1962    0.0000 C   0  0  0  0  0  0  0  0  0  0  0  0
   -0.7500   -6.4952    0.0000 O   0  0  0  0  0  0  0  0  0  0  0  0
   -3.0000   -5.1962    0.0000 N   0  0  0  0  0  0  0  0  0  0  0  0
   -3.7500   -6.4952    0.0000 C   0  0  0  0  0  0  0  0  0  0  0  0
   -5.2500   -6.4952    0.0000 C   0  0  0  0  0  0  0  0  0  0  0  0
   -6.1317   -7.7087    0.0000 C   0  0  0  0  0  0  0  0  0  0  0  0
   -7.5583   -7.2452    0.0000 C   0  0  0  0  0  0  0  0  0  0  0  0
   -7.5583   -5.7452    0.0000 C   0  0  0  0  0  0  0  0  0  0  0  0
   -6.1317   -5.2817    0.0000 N   0  0  0  0  0  0  0  0  0  0  0  0
   -1.5000   -2.5981    0.0000 N   0  0  0  0  0  0  0  0  0  0  0  0
   -0.7500   -1.2990    0.0000 C   0  0  0  0  0  0  0  0  0  0  0  0
    0.7500   -1.2990    0.0000 C   0  0  0  0  0  0  0  0  0  0  0  0
    1.5000    0.0000    0.0000 C   0  0  0  0  0  0  0  0  0  0  0  0
    0.7500    1.2990    0.0000 C   0  0  0  0  0  0  0  0  0  0  0  0
   -0.7500    1.2990    0.0000 N   0  0  0  0  0  0  0  0  0  0  0  0
   -1.5000    2.5981    0.0000 C   0  0  0  0  0  0  0  0  0  0  0  0
   -3.0000    2.5981    0.0000 C   0  0  0  0  0  0  0  0  0  0  0  0
   -3.7500    3.8971    0.0000 C   0  0  0  0  0  0  0  0  0  0  0  0
   -3.0000    5.1962    0.0000 C   0  0  0  0  0  0  0  0  0  0  0  0
   -1.5000    5.1962    0.0000 C   0  0  0  0  0  0  0  0  0  0  0  0
   -0.7500    6.4952    0.0000 C   0  0  0  0  0  0  0  0  0  0  0  0
    0.7500    6.4952    0.0000 C   0  0  0  0  0  0  0  0  0  0  0  0
    1.5000    5.1962    0.0000 C   0  0  0  0  0  0  0  0  0  0  0  0
    0.7500    3.8971    0.0000 C   0  0  0  0  0  0  0  0  0  0  0  0
    1.5000    2.5981    0.0000 C   0  0  0  0  0  0  0  0  0  0  0  0
   -0.7500    3.8971    0.0000 C   0  0  0  0  0  0  0  0  0  0  0  0
   -1.5000    0.0000    0.0000 C   0  0  0  0  0  0  0  0  0  0  0  0
    3.7500   -1.2990    0.0000 C   0  0  0  0  0  0  0  0  0  0  0  0
    5.2500   -1.2990    0.0000 C   0  0  0  0  0  0  0  0  0  0  0  0
    6.0000   -0.0000    0.0000 C   0  0  0  0  0  0  0  0  0  0  0  0
    5.2500    1.2990    0.0000 C   0  0  0  0  0  0  0  0  0  0  0  0
    4.5000    2.5981    0.0000 N   0  0  0  0  0  0  0  0  0  0  0  0
  1  2  2  0
  2  3  1  0
  3  4  2  0
  3  5  1  0
  5  6  1  0
  6  7  1  0
  7  8  1  0
  8  9  1  0
  9 10  2  0
 10 11  1  0
 11 12  1  0
 12 13  2  0
 12 14  1  0
 14 15  1  0
 16 15  1  1
 16 17  1  0
 17 18  1  0
 18 19  1  0
 19 20  1  0
 11 21  2  0
 21 22  1  0
 22 23  2  0
 23 24  1  0
 24 25  1  0
 25 26  1  0
 26 27  1  0
 27 28  2  0
 28 29  1  0
 29 30  2  0
 30 31  1  0
 31 32  2  0
 32 33  1  0
 33 34  2  0
 34 35  1  0
 35 36  1  0
 35 37  2  0
 26 38  1  0
  8 39  1  0
 39 40  1  0
 40 41  1  6
 41 42  1  0
 42 43  3  0
 40  5  1  0
 23  9  1  0
 37 27  1  0
 20 16  1  0
 38 22  1  0
 37 31  1  0
M  END
>  <molecule_chembl_id>  (341) 
CHEMBL4852249

>  <canonical_smiles>  (341) 
C=CC(=O)N1CCN(c2cc(C(=O)NC[C@H]3CCCN3)nc3c2CCN(c2cccc4cccc(C)c24)C3)C[C@@H]1CC#N

>  <pchembl_value_mean>  (341) 
8.21

>  <inchi>  (341) 
InChI=1S/C34H39N7O2/c1-3-32(42)41-18-17-40(21-26(41)12-14-35)31-19-28(34(43)37-20-25-10-6-15-36-25)38-29-22-39(16-13-27(29)31)30-11-5-9-24-8-4-7-23(2)33(24)30/h3-5,7-9,11,19,25-26,36H,1,6,10,12-13,15-18,20-22H2,2H3,(H,37,43)/t25-,26+/m1/s1

$$$$

     RDKit          2D

 43 48  0  0  0  0  0  0  0  0999 V2000
    9.7500   -3.8971    0.0000 C   0  0  0  0  0  0  0  0  0  0  0  0
    8.2500   -3.8971    0.0000 C   0  0  0  0  0  0  0  0  0  0  0  0
    7.5000   -2.5981    0.0000 C   0  0  0  0  0  0  0  0  0  0  0  0
    8.2500   -1.2990    0.0000 O   0  0  0  0  0  0  0  0  0  0  0  0
    6.0000   -2.5981    0.0000 N   0  0  0  0  0  0  0  0  0  0  0  0
    5.2500   -3.8971    0.0000 C   0  0  0  0  0  0  0  0  0  0  0  0
    3.7500   -3.8971    0.0000 C   0  0  0  0  0  0  0  0  0  0  0  0
    3.0000   -2.5981    0.0000 N   0  0  0  0  0  0  0  0  0  0  0  0
    1.5000   -2.5981    0.0000 C   0  0  0  0  0  0  0  0  0  0  0  0
    0.7500   -3.8971    0.0000 N   0  0  0  0  0  0  0  0  0  0  0  0
   -0.7500   -3.8971    0.0000 C   0  0  0  0  0  0  0  0  0  0  0  0
   -1.5000   -5.1962    0.0000 O   0  0  0  0  0  0  0  0  0  0  0  0
   -3.0000   -5.1962    0.0000 C   0  0  0  0  0  0  0  0  0  0  0  0
   -3.7500   -6.4952    0.0000 C   0  0  0  0  0  0  0  0  0  0  0  0
   -3.1399   -7.8655    0.0000 C   0  0  0  0  0  0  0  0  0  0  0  0
   -4.2546   -8.8692    0.0000 C   0  0  0  0  0  0  0  0  0  0  0  0
   -5.5537   -8.1192    0.0000 C   0  0  0  0  0  0  0  0  0  0  0  0
   -5.2418   -6.6520    0.0000 N   0  0  0  0  0  0  0  0  0  0  0  0
   -6.2455   -5.5373    0.0000 C   0  0  0  0  0  0  0  0  0  0  0  0
   -1.5000   -2.5981    0.0000 N   0  0  0  0  0  0  0  0  0  0  0  0
   -0.7500   -1.2990    0.0000 C   0  0  0  0  0  0  0  0  0  0  0  0
    0.7500   -1.2990    0.0000 C   0  0  0  0  0  0  0  0  0  0  0  0
    1.5000    0.0000    0.0000 C   0  0  0  0  0  0  0  0  0  0  0  0
    0.7500    1.2990    0.0000 C   0  0  0  0  0  0  0  0  0  0  0  0
   -0.7500    1.2990    0.0000 N   0  0  0  0  0  0  0  0  0  0  0  0
   -1.5000    2.5981    0.0000 C   0  0  0  0  0  0  0  0  0  0  0  0
   -3.0000    2.5981    0.0000 C   0  0  0  0  0  0  0  0  0  0  0  0
   -3.7500    3.8971    0.0000 C   0  0  0  0  0  0  0  0  0  0  0  0
   -3.0000    5.1962    0.0000 C   0  0  0  0  0  0  0  0  0  0  0  0
   -1.5000    5.1962    0.0000 C   0  0  0  0  0  0  0  0  0  0  0  0
   -0.7500    6.4952    0.0000 C   0  0  0  0  0  0  0  0  0  0  0  0
    0.7500    6.4952    0.0000 C   0  0  0  0  0  0  0  0  0  0  0  0
    1.5000    5.1962    0.0000 C   0  0  0  0  0  0  0  0  0  0  0  0
    0.7500    3.8971    0.0000 C   0  0  0  0  0  0  0  0  0  0  0  0
    1.5000    2.5981    0.0000 C   0  0  0  0  0  0  0  0  0  0  0  0
    3.0000    2.5981    0.0000 C   0  0  0  0  0  0  0  0  0  0  0  0
   -0.7500    3.8971    0.0000 C   0  0  0  0  0  0  0  0  0  0  0  0
   -1.5000    0.0000    0.0000 C   0  0  0  0  0  0  0  0  0  0  0  0
    3.7500   -1.2990    0.0000 C   0  0  0  0  0  0  0  0  0  0  0  0
    5.2500   -1.2990    0.0000 C   0  0  0  0  0  0  0  0  0  0  0  0
    6.0000   -0.0000    0.0000 C   0  0  0  0  0  0  0  0  0  0  0  0
    5.2500    1.2990    0.0000 C   0  0  0  0  0  0  0  0  0  0  0  0
    4.5000    2.5981    0.0000 N   0  0  0  0  0  0  0  0  0  0  0  0
  1  2  2  0
  2  3  1  0
  3  4  2  0
  3  5  1  0
  5  6  1  0
  6  7  1  0
  7  8  1  0
  8  9  1  0
  9 10  2  0
 10 11  1  0
 11 12  1  0
 12 13  1  0
 14 13  1  6
 14 15  1  0
 15 16  1  0
 16 17  1  0
 17 18  1  0
 18 19  1  0
 11 20  2  0
 20 21  1  0
 21 22  2  0
 22 23  1  0
 23 24  1  0
 24 25  1  0
 25 26  1  0
 26 27  2  0
 27 28  1  0
 28 29  2  0
 29 30  1  0
 30 31  2  0
 31 32  1  0
 32 33  2  0
 33 34  1  0
 34 35  1  0
 35 36  1  0
 34 37  2  0
 25 38  1  0
  8 39  1  0
 39 40  1  0
 40 41  1  6
 41 42  1  0
 42 43  3  0
 40  5  1  0
 22  9  1  0
 37 26  1  0
 18 14  1  0
 38 21  1  0
 37 30  1  0
M  END
>  <molecule_chembl_id>  (342) 
CHEMBL4646899

>  <canonical_smiles>  (342) 
C=CC(=O)N1CCN(c2nc(OC[C@@H]3CCCN3C)nc3c2CCN(c2cccc4cccc(CC)c24)C3)C[C@@H]1CC#N

>  <pchembl_value_mean>  (342) 
8.22

>  <inchi>  (342) 
InChI=1S/C34H41N7O2/c1-4-24-9-6-10-25-11-7-13-30(32(24)25)39-18-15-28-29(22-39)36-34(43-23-27-12-8-17-38(27)3)37-33(28)40-19-20-41(31(42)5-2)26(21-40)14-16-35/h5-7,9-11,13,26-27H,2,4,8,12,14-15,17-23H2,1,3H3/t26-,27-/m0/s1

$$$$

     RDKit          2D

 44 51  0  0  0  0  0  0  0  0999 V2000
    4.5000    0.0000    0.0000 C   0  0  0  0  0  0  0  0  0  0  0  0
    3.0000    0.0000    0.0000 C   0  0  0  0  0  0  0  0  0  0  0  0
    1.5000    0.0000    0.0000 C   0  0  0  0  0  0  0  0  0  0  0  0
    0.7500   -1.2990    0.0000 C   0  0  0  0  0  0  0  0  0  0  0  0
    1.5000   -2.5981    0.0000 F   0  0  0  0  0  0  0  0  0  0  0  0
   -0.7500   -1.2990    0.0000 C   0  0  0  0  0  0  0  0  0  0  0  0
   -1.5000    0.0000    0.0000 C   0  0  0  0  0  0  0  0  0  0  0  0
   -0.7500    1.2990    0.0000 C   0  0  0  0  0  0  0  0  0  0  0  0
   -1.5000    2.5981    0.0000 C   0  0  0  0  0  0  0  0  0  0  0  0
   -0.7500    3.8971    0.0000 C   0  0  0  0  0  0  0  0  0  0  0  0
   -1.5000    5.1962    0.0000 O   0  0  0  0  0  0  0  0  0  0  0  0
    0.7500    3.8971    0.0000 C   0  0  0  0  0  0  0  0  0  0  0  0
    1.5000    2.5981    0.0000 C   0  0  0  0  0  0  0  0  0  0  0  0
    3.0000    2.5981    0.0000 C   0  0  0  0  0  0  0  0  0  0  0  0
    3.7500    1.2990    0.0000 N   0  0  0  0  0  0  0  0  0  0  0  0
    5.2500    1.2990    0.0000 C   0  0  0  0  0  0  0  0  0  0  0  0
    6.0000    2.5981    0.0000 C   0  0  0  0  0  0  0  0  0  0  0  0
    7.5000    2.5981    0.0000 C   0  0  0  0  0  0  0  0  0  0  0  0
    8.2500    1.2990    0.0000 N   0  0  0  0  0  0  0  0  0  0  0  0
    9.7500    1.2990    0.0000 C   0  0  0  0  0  0  0  0  0  0  0  0
   10.5000   -0.0000    0.0000 C   0  0  0  0  0  0  0  0  0  0  0  0
   10.8119   -1.4672    0.0000 C   0  0  0  0  0  0  0  0  0  0  0  0
    9.5128   -2.2172    0.0000 C   0  0  0  0  0  0  0  0  0  0  0  0
    8.3981   -1.2135    0.0000 C   0  0  0  0  0  0  0  0  0  0  0  0
    7.5000   -0.0000    0.0000 C   0  0  0  0  0  0  0  0  0  0  0  0
    9.0082    0.1568    0.0000 N   0  0  0  0  0  0  0  0  0  0  0  0
    8.2500    3.8971    0.0000 N   0  0  0  0  0  0  0  0  0  0  0  0
    7.5000    5.1962    0.0000 C   0  0  0  0  0  0  0  0  0  0  0  0
    8.2500    6.4952    0.0000 O   0  0  0  0  0  0  0  0  0  0  0  0
    9.7500    6.4952    0.0000 C   0  0  0  0  0  0  0  0  0  0  0  0
   10.5000    7.7942    0.0000 C   0  0  0  0  0  0  0  0  0  0  0  0
    9.0328    8.1061    0.0000 C   0  0  0  0  0  0  0  0  0  0  0  0
    8.8760    9.5979    0.0000 C   0  0  0  0  0  0  0  0  0  0  0  0
   10.2463   10.2080    0.0000 C   0  0  0  0  0  0  0  0  0  0  0  0
   11.2500    9.0933    0.0000 N   0  0  0  0  0  0  0  0  0  0  0  0
   12.7172    8.7814    0.0000 C   0  0  0  0  0  0  0  0  0  0  0  0
   12.8740    7.2896    0.0000 C   0  0  0  0  0  0  0  0  0  0  0  0
   14.1731    6.5396    0.0000 F   0  0  0  0  0  0  0  0  0  0  0  0
   11.5037    6.6795    0.0000 C   0  0  0  0  0  0  0  0  0  0  0  0
    6.0000    5.1962    0.0000 N   0  0  0  0  0  0  0  0  0  0  0  0
    5.2500    3.8971    0.0000 C   0  0  0  0  0  0  0  0  0  0  0  0
    3.7500    3.8971    0.0000 C   0  0  0  0  0  0  0  0  0  0  0  0
    3.0000    5.1962    0.0000 F   0  0  0  0  0  0  0  0  0  0  0  0
    0.7500    1.2990    0.0000 C   0  0  0  0  0  0  0  0  0  0  0  0
  1  2  3  0
  2  3  1  0
  3  4  2  0
  4  5  1  0
  4  6  1  0
  6  7  2  0
  7  8  1  0
  8  9  2  0
  9 10  1  0
 10 11  1  0
 10 12  2  0
 12 13  1  0
 13 14  1  0
 14 15  2  0
 15 16  1  0
 16 17  2  0
 17 18  1  0
 18 19  1  0
 19 20  1  0
 21 20  1  1
 21 22  1  0
 22 23  1  0
 24 23  1  1
 24 25  1  0
 24 26  1  0
 18 27  2  0
 27 28  1  0
 28 29  1  0
 29 30  1  0
 31 30  1  1
 31 32  1  0
 32 33  1  0
 33 34  1  0
 34 35  1  0
 35 36  1  0
 36 37  1  0
 37 38  1  6
 37 39  1  0
 28 40  2  0
 40 41  1  0
 41 42  2  0
 42 43  1  0
 13 44  2  0
 44  3  1  0
 44  8  1  0
 42 14  1  0
 41 17  1  0
 25 19  1  0
 35 31  1  0
 26 21  1  0
 39 31  1  0
M  END
>  <molecule_chembl_id>  (343) 
CHEMBL5081048

>  <canonical_smiles>  (343) 
C#Cc1c(F)ccc2cc(O)cc(-c3ncc4c(N5C[C@H]6CC[C@@H](C5)N6)nc(OC[C@@]56CCCN5C[C@H](F)C6)nc4c3F)c12

>  <pchembl_value_mean>  (343) 
8.253333

>  <inchi>  (343) 
InChI=1S/C33H31F3N6O2/c1-2-23-26(35)7-4-18-10-22(43)11-24(27(18)23)29-28(36)30-25(13-37-29)31(41-15-20-5-6-21(16-41)38-20)40-32(39-30)44-17-33-8-3-9-42(33)14-19(34)12-33/h1,4,7,10-11,13,19-21,38,43H,3,5-6,8-9,12,14-17H2/t19-,20-,21+,33+/m1/s1

$$$$

     RDKit          2D

 44 49  0  0  0  0  0  0  0  0999 V2000
    9.7500   -3.8971    0.0000 C   0  0  0  0  0  0  0  0  0  0  0  0
    8.2500   -3.8971    0.0000 C   0  0  0  0  0  0  0  0  0  0  0  0
    7.5000   -2.5981    0.0000 C   0  0  0  0  0  0  0  0  0  0  0  0
    8.2500   -1.2990    0.0000 O   0  0  0  0  0  0  0  0  0  0  0  0
    6.0000   -2.5981    0.0000 N   0  0  0  0  0  0  0  0  0  0  0  0
    5.2500   -3.8971    0.0000 C   0  0  0  0  0  0  0  0  0  0  0  0
    3.7500   -3.8971    0.0000 C   0  0  0  0  0  0  0  0  0  0  0  0
    3.0000   -2.5981    0.0000 N   0  0  0  0  0  0  0  0  0  0  0  0
    1.5000   -2.5981    0.0000 C   0  0  0  0  0  0  0  0  0  0  0  0
    0.7500   -3.8971    0.0000 C   0  0  0  0  0  0  0  0  0  0  0  0
   -0.7500   -3.8971    0.0000 C   0  0  0  0  0  0  0  0  0  0  0  0
   -1.5000   -5.1962    0.0000 C   0  0  0  0  0  0  0  0  0  0  0  0
   -0.7500   -6.4952    0.0000 O   0  0  0  0  0  0  0  0  0  0  0  0
   -3.0000   -5.1962    0.0000 N   0  0  0  0  0  0  0  0  0  0  0  0
   -3.7500   -6.4952    0.0000 C   0  0  0  0  0  0  0  0  0  0  0  0
   -2.3405   -7.0082    0.0000 C   0  0  0  0  0  0  0  0  0  0  0  0
   -4.8991   -5.5310    0.0000 C   0  0  0  0  0  0  0  0  0  0  0  0
   -6.3086   -6.0440    0.0000 C   0  0  0  0  0  0  0  0  0  0  0  0
   -6.5691   -7.5213    0.0000 C   0  0  0  0  0  0  0  0  0  0  0  0
   -5.4200   -8.4854    0.0000 N   0  0  0  0  0  0  0  0  0  0  0  0
   -4.0105   -7.9724    0.0000 C   0  0  0  0  0  0  0  0  0  0  0  0
   -1.5000   -2.5981    0.0000 N   0  0  0  0  0  0  0  0  0  0  0  0
   -0.7500   -1.2990    0.0000 C   0  0  0  0  0  0  0  0  0  0  0  0
    0.7500   -1.2990    0.0000 C   0  0  0  0  0  0  0  0  0  0  0  0
    1.5000    0.0000    0.0000 C   0  0  0  0  0  0  0  0  0  0  0  0
    0.7500    1.2990    0.0000 C   0  0  0  0  0  0  0  0  0  0  0  0
   -0.7500    1.2990    0.0000 N   0  0  0  0  0  0  0  0  0  0  0  0
   -1.5000    2.5981    0.0000 C   0  0  0  0  0  0  0  0  0  0  0  0
   -3.0000    2.5981    0.0000 C   0  0  0  0  0  0  0  0  0  0  0  0
   -3.7500    3.8971    0.0000 C   0  0  0  0  0  0  0  0  0  0  0  0
   -3.0000    5.1962    0.0000 C   0  0  0  0  0  0  0  0  0  0  0  0
   -1.5000    5.1962    0.0000 C   0  0  0  0  0  0  0  0  0  0  0  0
   -0.7500    6.4952    0.0000 C   0  0  0  0  0  0  0  0  0  0  0  0
    0.7500    6.4952    0.0000 C   0  0  0  0  0  0  0  0  0  0  0  0
    1.5000    5.1962    0.0000 C   0  0  0  0  0  0  0  0  0  0  0  0
    0.7500    3.8971    0.0000 C   0  0  0  0  0  0  0  0  0  0  0  0
    1.5000    2.5981    0.0000 C   0  0  0  0  0  0  0  0  0  0  0  0
   -0.7500    3.8971    0.0000 C   0  0  0  0  0  0  0  0  0  0  0  0
   -1.5000    0.0000    0.0000 C   0  0  0  0  0  0  0  0  0  0  0  0
    3.7500   -1.2990    0.0000 C   0  0  0  0  0  0  0  0  0  0  0  0
    5.2500   -1.2990    0.0000 C   0  0  0  0  0  0  0  0  0  0  0  0
    6.0000   -0.0000    0.0000 C   0  0  0  0  0  0  0  0  0  0  0  0
    5.2500    1.2990    0.0000 C   0  0  0  0  0  0  0  0  0  0  0  0
    4.5000    2.5981    0.0000 N   0  0  0  0  0  0  0  0  0  0  0  0
  1  2  2  0
  2  3  1  0
  3  4  2  0
  3  5  1  0
  5  6  1  0
  6  7  1  0
  7  8  1  0
  8  9  1  0
  9 10  2  0
 10 11  1  0
 11 12  1  0
 12 13  2  0
 12 14  1  0
 14 15  1  0
 15 16  1  0
 15 17  1  0
 17 18  1  0
 18 19  1  0
 19 20  1  0
 20 21  1  0
 11 22  2  0
 22 23  1  0
 23 24  2  0
 24 25  1  0
 25 26  1  0
 26 27  1  0
 27 28  1  0
 28 29  2  0
 29 30  1  0
 30 31  2  0
 31 32  1  0
 32 33  2  0
 33 34  1  0
 34 35  2  0
 35 36  1  0
 36 37  1  0
 36 38  2  0
 27 39  1  0
  8 40  1  0
 40 41  1  0
 41 42  1  6
 42 43  1  0
 43 44  3  0
 41  5  1  0
 24  9  1  0
 38 28  1  0
 21 15  1  0
 39 23  1  0
 38 32  1  0
M  END
>  <molecule_chembl_id>  (344) 
CHEMBL4847146

>  <canonical_smiles>  (344) 
C=CC(=O)N1CCN(c2cc(C(=O)NC3(C)CCCNC3)nc3c2CCN(c2cccc4cccc(C)c24)C3)C[C@@H]1CC#N

>  <pchembl_value_mean>  (344) 
8.27

>  <inchi>  (344) 
InChI=1S/C35H41N7O2/c1-4-32(43)42-19-18-41(21-26(42)12-15-36)31-20-28(34(44)39-35(3)14-7-16-37-23-35)38-29-22-40(17-13-27(29)31)30-11-6-10-25-9-5-8-24(2)33(25)30/h4-6,8-11,20,26,37H,1,7,12-14,16-19,21-23H2,2-3H3,(H,39,44)/t26-,35?/m0/s1

$$$$

     RDKit          2D

 40 46  0  0  0  0  0  0  0  0999 V2000
    5.4681   -5.1343    0.0000 C   0  0  0  0  0  0  0  0  0  0  0  0
    4.0586   -5.6473    0.0000 N   0  0  0  0  0  0  0  0  0  0  0  0
    3.7981   -7.1245    0.0000 C   0  0  0  0  0  0  0  0  0  0  0  0
    2.9095   -4.6831    0.0000 C   0  0  0  0  0  0  0  0  0  0  0  0
    1.5000   -5.1962    0.0000 C   0  0  0  0  0  0  0  0  0  0  0  0
    0.7500   -3.8971    0.0000 C   0  0  0  0  0  0  0  0  0  0  0  0
    1.5000   -2.5981    0.0000 O   0  0  0  0  0  0  0  0  0  0  0  0
    0.7500   -1.2990    0.0000 C   0  0  0  0  0  0  0  0  0  0  0  0
    1.5000    0.0000    0.0000 N   0  0  0  0  0  0  0  0  0  0  0  0
    0.7500    1.2990    0.0000 C   0  0  0  0  0  0  0  0  0  0  0  0
    1.5000    2.5981    0.0000 N   0  0  0  0  0  0  0  0  0  0  0  0
    3.0000    2.5981    0.0000 C   0  0  0  0  0  0  0  0  0  0  0  0
    3.7500    3.8971    0.0000 C   0  0  0  0  0  0  0  0  0  0  0  0
    4.0619    5.3643    0.0000 C   0  0  0  0  0  0  0  0  0  0  0  0
    2.7628    6.1143    0.0000 C   0  0  0  0  0  0  0  0  0  0  0  0
    1.6481    5.1106    0.0000 C   0  0  0  0  0  0  0  0  0  0  0  0
    0.7500    3.8971    0.0000 C   0  0  0  0  0  0  0  0  0  0  0  0
    2.2582    3.7403    0.0000 N   0  0  0  0  0  0  0  0  0  0  0  0
   -0.7500    1.2990    0.0000 C   0  0  0  0  0  0  0  0  0  0  0  0
   -1.5000    2.5981    0.0000 C   0  0  0  0  0  0  0  0  0  0  0  0
   -3.0000    2.5981    0.0000 C   0  0  0  0  0  0  0  0  0  0  0  0
   -3.7500    3.8971    0.0000 F   0  0  0  0  0  0  0  0  0  0  0  0
   -3.7500    1.2990    0.0000 C   0  0  0  0  0  0  0  0  0  0  0  0
   -5.2500    1.2990    0.0000 C   0  0  0  0  0  0  0  0  0  0  0  0
   -6.0000   -0.0000    0.0000 C   0  0  0  0  0  0  0  0  0  0  0  0
   -7.5000   -0.0000    0.0000 C   0  0  0  0  0  0  0  0  0  0  0  0
   -8.2500   -1.2990    0.0000 O   0  0  0  0  0  0  0  0  0  0  0  0
   -8.2500    1.2990    0.0000 C   0  0  0  0  0  0  0  0  0  0  0  0
   -7.5000    2.5981    0.0000 C   0  0  0  0  0  0  0  0  0  0  0  0
   -8.2500    3.8971    0.0000 C   0  0  0  0  0  0  0  0  0  0  0  0
   -7.5000    5.1962    0.0000 C   0  0  0  0  0  0  0  0  0  0  0  0
   -6.0000    5.1962    0.0000 C   0  0  0  0  0  0  0  0  0  0  0  0
   -5.2500    3.8971    0.0000 C   0  0  0  0  0  0  0  0  0  0  0  0
   -6.0000    2.5981    0.0000 C   0  0  0  0  0  0  0  0  0  0  0  0
   -3.0000    0.0000    0.0000 C   0  0  0  0  0  0  0  0  0  0  0  0
   -3.7500   -1.2990    0.0000 F   0  0  0  0  0  0  0  0  0  0  0  0
   -1.5000    0.0000    0.0000 C   0  0  0  0  0  0  0  0  0  0  0  0
   -0.7500   -1.2990    0.0000 N   0  0  0  0  0  0  0  0  0  0  0  0
    1.7605   -6.6734    0.0000 C   0  0  0  0  0  0  0  0  0  0  0  0
    0.3509   -6.1603    0.0000 C   0  0  0  0  0  0  0  0  0  0  0  0
  1  2  1  0
  2  3  1  0
  2  4  1  0
  4  5  1  0
  5  6  1  0
  6  7  1  0
  7  8  1  0
  8  9  2  0
  9 10  1  0
 10 11  1  0
 11 12  1  0
 12 13  1  0
 13 14  1  0
 14 15  1  0
 15 16  1  0
 16 17  1  0
 16 18  1  0
 10 19  2  0
 19 20  1  0
 20 21  2  0
 21 22  1  0
 21 23  1  0
 23 24  1  0
 24 25  2  0
 25 26  1  0
 26 27  1  0
 26 28  2  0
 28 29  1  0
 29 30  2  0
 30 31  1  0
 31 32  2  0
 32 33  1  0
 33 34  2  0
 23 35  2  0
 35 36  1  0
 35 37  1  0
 37 38  2  0
  5 39  1  0
 39 40  1  0
 40  5  1  0
 38  8  1  0
 17 11  1  0
 37 19  1  0
 18 13  1  0
 34 24  1  0
 34 29  1  0
M  END
>  <molecule_chembl_id>  (345) 
CHEMBL4852554

>  <canonical_smiles>  (345) 
CN(C)CC1(COc2nc(N3CC4CCC(C3)N4)c3cc(F)c(-c4cc(O)cc5ccccc45)c(F)c3n2)CC1

>  <pchembl_value_mean>  (345) 
8.29

>  <inchi>  (345) 
InChI=1S/C31H33F2N5O2/c1-37(2)16-31(9-10-31)17-40-30-35-28-24(29(36-30)38-14-19-7-8-20(15-38)34-19)13-25(32)26(27(28)33)23-12-21(39)11-18-5-3-4-6-22(18)23/h3-6,11-13,19-20,34,39H,7-10,14-17H2,1-2H3

$$$$

     RDKit          2D

 48 53  0  0  0  0  0  0  0  0999 V2000
    9.7500   -3.8971    0.0000 C   0  0  0  0  0  0  0  0  0  0  0  0
    8.2500   -3.8971    0.0000 C   0  0  0  0  0  0  0  0  0  0  0  0
    7.5000   -5.1962    0.0000 F   0  0  0  0  0  0  0  0  0  0  0  0
    7.5000   -2.5981    0.0000 C   0  0  0  0  0  0  0  0  0  0  0  0
    8.2500   -1.2990    0.0000 O   0  0  0  0  0  0  0  0  0  0  0  0
    6.0000   -2.5981    0.0000 N   0  0  0  0  0  0  0  0  0  0  0  0
    5.2500   -3.8971    0.0000 C   0  0  0  0  0  0  0  0  0  0  0  0
    3.7500   -3.8971    0.0000 C   0  0  0  0  0  0  0  0  0  0  0  0
    3.0000   -2.5981    0.0000 N   0  0  0  0  0  0  0  0  0  0  0  0
    1.5000   -2.5981    0.0000 C   0  0  0  0  0  0  0  0  0  0  0  0
    0.7500   -3.8971    0.0000 C   0  0  0  0  0  0  0  0  0  0  0  0
   -0.7500   -3.8971    0.0000 C   0  0  0  0  0  0  0  0  0  0  0  0
   -1.5000   -5.1962    0.0000 C   0  0  0  0  0  0  0  0  0  0  0  0
   -0.7500   -6.4952    0.0000 O   0  0  0  0  0  0  0  0  0  0  0  0
   -3.0000   -5.1962    0.0000 N   0  0  0  0  0  0  0  0  0  0  0  0
   -3.7500   -6.4952    0.0000 C   0  0  0  0  0  0  0  0  0  0  0  0
   -5.2500   -6.4952    0.0000 C   0  0  0  0  0  0  0  0  0  0  0  0
   -3.0000   -7.7942    0.0000 C   0  0  0  0  0  0  0  0  0  0  0  0
   -3.7500   -9.0933    0.0000 N   0  0  0  0  0  0  0  0  0  0  0  0
   -3.1399  -10.4636    0.0000 C   0  0  0  0  0  0  0  0  0  0  0  0
   -4.2546  -11.4673    0.0000 C   0  0  0  0  0  0  0  0  0  0  0  0
   -5.5537  -10.7173    0.0000 C   0  0  0  0  0  0  0  0  0  0  0  0
   -6.1638  -12.0876    0.0000 C   0  0  0  0  0  0  0  0  0  0  0  0
   -6.9802  -10.2538    0.0000 O   0  0  0  0  0  0  0  0  0  0  0  0
   -5.2418   -9.2501    0.0000 C   0  0  0  0  0  0  0  0  0  0  0  0
   -1.5000   -2.5981    0.0000 N   0  0  0  0  0  0  0  0  0  0  0  0
   -0.7500   -1.2990    0.0000 C   0  0  0  0  0  0  0  0  0  0  0  0
    0.7500   -1.2990    0.0000 C   0  0  0  0  0  0  0  0  0  0  0  0
    1.5000    0.0000    0.0000 C   0  0  0  0  0  0  0  0  0  0  0  0
    0.7500    1.2990    0.0000 C   0  0  0  0  0  0  0  0  0  0  0  0
   -0.7500    1.2990    0.0000 N   0  0  0  0  0  0  0  0  0  0  0  0
   -1.5000    2.5981    0.0000 C   0  0  0  0  0  0  0  0  0  0  0  0
   -3.0000    2.5981    0.0000 C   0  0  0  0  0  0  0  0  0  0  0  0
   -3.7500    3.8971    0.0000 C   0  0  0  0  0  0  0  0  0  0  0  0
   -3.0000    5.1962    0.0000 C   0  0  0  0  0  0  0  0  0  0  0  0
   -1.5000    5.1962    0.0000 C   0  0  0  0  0  0  0  0  0  0  0  0
   -0.7500    6.4952    0.0000 C   0  0  0  0  0  0  0  0  0  0  0  0
    0.7500    6.4952    0.0000 C   0  0  0  0  0  0  0  0  0  0  0  0
    1.5000    5.1962    0.0000 C   0  0  0  0  0  0  0  0  0  0  0  0
    0.7500    3.8971    0.0000 C   0  0  0  0  0  0  0  0  0  0  0  0
    1.5000    2.5981    0.0000 C   0  0  0  0  0  0  0  0  0  0  0  0
   -0.7500    3.8971    0.0000 C   0  0  0  0  0  0  0  0  0  0  0  0
   -1.5000    0.0000    0.0000 C   0  0  0  0  0  0  0  0  0  0  0  0
    3.7500   -1.2990    0.0000 C   0  0  0  0  0  0  0  0  0  0  0  0
    5.2500   -1.2990    0.0000 C   0  0  0  0  0  0  0  0  0  0  0  0
    6.0000   -0.0000    0.0000 C   0  0  0  0  0  0  0  0  0  0  0  0
    5.2500    1.2990    0.0000 C   0  0  0  0  0  0  0  0  0  0  0  0
    4.5000    2.5981    0.0000 N   0  0  0  0  0  0  0  0  0  0  0  0
  1  2  2  0
  2  3  1  0
  2  4  1  0
  4  5  2  0
  4  6  1  0
  6  7  1  0
  7  8  1  0
  8  9  1  0
  9 10  1  0
 10 11  2  0
 11 12  1  0
 12 13  1  0
 13 14  2  0
 13 15  1  0
 15 16  1  0
 16 17  1  0
 16 18  1  0
 18 19  1  0
 19 20  1  0
 20 21  1  0
 21 22  1  0
 22 23  1  0
 22 24  1  0
 22 25  1  0
 12 26  2  0
 26 27  1  0
 27 28  2  0
 28 29  1  0
 29 30  1  0
 30 31  1  0
 31 32  1  0
 32 33  2  0
 33 34  1  0
 34 35  2  0
 35 36  1  0
 36 37  2  0
 37 38  1  0
 38 39  2  0
 39 40  1  0
 40 41  1  0
 40 42  2  0
 31 43  1  0
  9 44  1  0
 44 45  1  0
 45 46  1  6
 46 47  1  0
 47 48  3  0
 45  6  1  0
 28 10  1  0
 42 32  1  0
 25 19  1  0
 43 27  1  0
 42 36  1  0
M  END
>  <molecule_chembl_id>  (346) 
CHEMBL4860108

>  <canonical_smiles>  (346) 
C=C(F)C(=O)N1CCN(c2cc(C(=O)NC(C)CN3CCC(C)(O)C3)nc3c2CCN(c2cccc4cccc(C)c24)C3)C[C@@H]1CC#N

>  <pchembl_value_mean>  (346) 
8.3

>  <inchi>  (346) 
InChI=1S/C37H44FN7O3/c1-24-7-5-8-27-9-6-10-32(34(24)27)43-15-12-29-31(22-43)41-30(35(46)40-25(2)20-42-16-13-37(4,48)23-42)19-33(29)44-17-18-45(36(47)26(3)38)28(21-44)11-14-39/h5-10,19,25,28,48H,3,11-13,15-18,20-23H2,1-2,4H3,(H,40,46)/t25?,28-,37?/m0/s1

$$$$

     RDKit          2D

142147  0  0  0  0  0  0  0  0999 V2000
    7.2018   -1.6394    0.0000 C   0  0  0  0  0  0  0  0  0  0  0  0
    5.9883   -0.7578    0.0000 C   0  0  0  0  0  0  0  0  0  0  0  0
    6.1451    0.7340    0.0000 C   0  0  0  0  0  0  0  0  0  0  0  0
    4.9316    1.6157    0.0000 C   0  0  0  0  0  0  0  0  0  0  0  0
    5.0884    3.1075    0.0000 C   0  0  0  0  0  0  0  0  0  0  0  0
    3.8748    3.9892    0.0000 C   0  0  0  0  0  0  0  0  0  0  0  0
    2.8879    2.8596    0.0000 N   0  0  0  0  0  0  0  0  0  0  0  0
    1.7152    1.9243    0.0000 C   0  0  0  0  0  0  0  0  0  0  0  0
    2.5415    0.6725    0.0000 O   0  0  0  0  0  0  0  0  0  0  0  0
    0.3943    1.2135    0.0000 C   0  0  0  0  0  0  0  0  0  0  0  0
    1.2760    0.0000    0.0000 C   0  0  0  0  0  0  0  0  0  0  0  0
    0.3943   -1.2135    0.0000 C   0  0  0  0  0  0  0  0  0  0  0  0
   -1.0323   -0.7500    0.0000 C   0  0  0  0  0  0  0  0  0  0  0  0
   -1.0323    0.7500    0.0000 N   0  0  0  0  0  0  0  0  0  0  0  0
   -2.5187    0.5487    0.0000 C   0  0  0  0  0  0  0  0  0  0  0  0
   -2.4514   -0.9498    0.0000 O   0  0  0  0  0  0  0  0  0  0  0  0
   -4.0172    0.6159    0.0000 C   0  0  0  0  0  0  0  0  0  0  0  0
   -4.2186   -0.8705    0.0000 C   0  0  0  0  0  0  0  0  0  0  0  0
   -5.6065   -1.4393    0.0000 C   0  0  0  0  0  0  0  0  0  0  0  0
   -6.7931   -0.5217    0.0000 O   0  0  0  0  0  0  0  0  0  0  0  0
   -5.8079   -2.9257    0.0000 O   0  0  0  0  0  0  0  0  0  0  0  0
   -5.4796    0.9497    0.0000 N   0  0  0  0  0  0  0  0  0  0  0  0
   -6.8589    1.5393    0.0000 C   0  0  0  0  0  0  0  0  0  0  0  0
   -7.5697    0.2184    0.0000 O   0  0  0  0  0  0  0  0  0  0  0  0
   -8.1107    2.3656    0.0000 C   0  0  0  0  0  0  0  0  0  0  0  0
   -9.0460    1.1929    0.0000 C   0  0  0  0  0  0  0  0  0  0  0  0
  -10.5292    1.4164    0.0000 C   0  0  0  0  0  0  0  0  0  0  0  0
  -11.0772    2.8127    0.0000 C   0  0  0  0  0  0  0  0  0  0  0  0
  -12.5605    3.0363    0.0000 C   0  0  0  0  0  0  0  0  0  0  0  0
  -13.4957    1.8636    0.0000 C   0  0  0  0  0  0  0  0  0  0  0  0
  -14.9790    2.0871    0.0000 O   0  0  0  0  0  0  0  0  0  0  0  0
  -12.9477    0.4672    0.0000 C   0  0  0  0  0  0  0  0  0  0  0  0
  -11.4645    0.2437    0.0000 C   0  0  0  0  0  0  0  0  0  0  0  0
   -9.1949    3.4022    0.0000 N   0  0  0  0  0  0  0  0  0  0  0  0
  -10.0766    4.6157    0.0000 C   0  0  0  0  0  0  0  0  0  0  0  0
  -11.3643    3.8464    0.0000 O   0  0  0  0  0  0  0  0  0  0  0  0
  -10.7274    5.9672    0.0000 C   0  0  0  0  0  0  0  0  0  0  0  0
  -12.1318    5.4401    0.0000 C   0  0  0  0  0  0  0  0  0  0  0  0
  -13.2904    6.3928    0.0000 O   0  0  0  0  0  0  0  0  0  0  0  0
  -11.1265    7.4131    0.0000 N   0  0  0  0  0  0  0  0  0  0  0  0
  -11.2610    8.9071    0.0000 C   0  0  0  0  0  0  0  0  0  0  0  0
  -12.7610    8.9071    0.0000 O   0  0  0  0  0  0  0  0  0  0  0  0
  -11.1265   10.4011    0.0000 C   0  0  0  0  0  0  0  0  0  0  0  0
  -12.6024   10.6689    0.0000 C   0  0  0  0  0  0  0  0  0  0  0  0
  -13.1084   12.0810    0.0000 C   0  0  0  0  0  0  0  0  0  0  0  0
  -13.5723    9.5246    0.0000 C   0  0  0  0  0  0  0  0  0  0  0  0
  -15.0482    9.7925    0.0000 C   0  0  0  0  0  0  0  0  0  0  0  0
  -10.7274   11.8470    0.0000 N   0  0  0  0  0  0  0  0  0  0  0  0
  -10.0766   13.1984    0.0000 C   0  0  0  0  0  0  0  0  0  0  0  0
  -11.3643   13.9678    0.0000 O   0  0  0  0  0  0  0  0  0  0  0  0
   -9.1949   14.4120    0.0000 C   0  0  0  0  0  0  0  0  0  0  0  0
  -10.3245   15.3989    0.0000 C   0  0  0  0  0  0  0  0  0  0  0  0
  -10.0347   16.8706    0.0000 C   0  0  0  0  0  0  0  0  0  0  0  0
   -8.6152   17.3554    0.0000 C   0  0  0  0  0  0  0  0  0  0  0  0
   -8.3253   18.8271    0.0000 C   0  0  0  0  0  0  0  0  0  0  0  0
   -9.4549   19.8141    0.0000 C   0  0  0  0  0  0  0  0  0  0  0  0
   -9.1650   21.2858    0.0000 C   0  0  0  0  0  0  0  0  0  0  0  0
   -7.7455   21.7706    0.0000 C   0  0  0  0  0  0  0  0  0  0  0  0
   -7.4556   23.2423    0.0000 C   0  0  0  0  0  0  0  0  0  0  0  0
   -8.5852   24.2292    0.0000 C   0  0  0  0  0  0  0  0  0  0  0  0
  -10.0047   23.7444    0.0000 C   0  0  0  0  0  0  0  0  0  0  0  0
  -10.2946   22.2727    0.0000 C   0  0  0  0  0  0  0  0  0  0  0  0
  -10.8744   19.3292    0.0000 C   0  0  0  0  0  0  0  0  0  0  0  0
  -11.1643   17.8575    0.0000 C   0  0  0  0  0  0  0  0  0  0  0  0
   -8.1107   15.4486    0.0000 N   0  0  0  0  0  0  0  0  0  0  0  0
   -6.8589   16.2749    0.0000 C   0  0  0  0  0  0  0  0  0  0  0  0
   -7.5697   17.5958    0.0000 O   0  0  0  0  0  0  0  0  0  0  0  0
   -5.4796   16.8645    0.0000 C   0  0  0  0  0  0  0  0  0  0  0  0
   -5.9431   18.2910    0.0000 C   0  0  0  0  0  0  0  0  0  0  0  0
   -4.9394   19.4058    0.0000 C   0  0  0  0  0  0  0  0  0  0  0  0
   -5.4029   20.8323    0.0000 C   0  0  0  0  0  0  0  0  0  0  0  0
   -3.4722   19.0939    0.0000 C   0  0  0  0  0  0  0  0  0  0  0  0
   -4.0172   17.1982    0.0000 N   0  0  0  0  0  0  0  0  0  0  0  0
   -2.5187   17.2655    0.0000 C   0  0  0  0  0  0  0  0  0  0  0  0
   -2.4514   18.7640    0.0000 O   0  0  0  0  0  0  0  0  0  0  0  0
   -1.0323   17.0642    0.0000 C   0  0  0  0  0  0  0  0  0  0  0  0
   -1.0323   18.5642    0.0000 C   0  0  0  0  0  0  0  0  0  0  0  0
    0.3943   19.0277    0.0000 C   0  0  0  0  0  0  0  0  0  0  0  0
    1.2760   17.8142    0.0000 C   0  0  0  0  0  0  0  0  0  0  0  0
    0.3943   16.6007    0.0000 N   0  0  0  0  0  0  0  0  0  0  0  0
    1.7152   15.8899    0.0000 C   0  0  0  0  0  0  0  0  0  0  0  0
    2.5415   17.1417    0.0000 O   0  0  0  0  0  0  0  0  0  0  0  0
    2.8879   14.9546    0.0000 C   0  0  0  0  0  0  0  0  0  0  0  0
    3.9245   16.0388    0.0000 N   0  0  0  0  0  0  0  0  0  0  0  0
    5.3818   15.6832    0.0000 C   0  0  0  0  0  0  0  0  0  0  0  0
    5.8024   14.2434    0.0000 O   0  0  0  0  0  0  0  0  0  0  0  0
    6.4184   16.7674    0.0000 C   0  0  0  0  0  0  0  0  0  0  0  0
    7.8756   16.4118    0.0000 C   0  0  0  0  0  0  0  0  0  0  0  0
    8.9122   17.4960    0.0000 C   0  0  0  0  0  0  0  0  0  0  0  0
   10.3694   17.1403    0.0000 C   0  0  0  0  0  0  0  0  0  0  0  0
   11.4060   18.2245    0.0000 N   0  0  0  0  0  0  0  0  0  0  0  0
   12.8633   17.8689    0.0000 C   0  0  0  0  0  0  0  0  0  0  0  0
   13.2839   16.4291    0.0000 N   0  0  0  0  0  0  0  0  0  0  0  0
   13.8998   18.9531    0.0000 N   0  0  0  0  0  0  0  0  0  0  0  0
    5.9977   18.2072    0.0000 N   0  0  0  0  0  0  0  0  0  0  0  0
    7.0343   19.2914    0.0000 C   0  0  0  0  0  0  0  0  0  0  0  0
    8.4915   18.9358    0.0000 O   0  0  0  0  0  0  0  0  0  0  0  0
    6.6137   20.7312    0.0000 C   0  0  0  0  0  0  0  0  0  0  0  0
    7.6503   21.8154    0.0000 C   0  0  0  0  0  0  0  0  0  0  0  0
    7.2296   23.2552    0.0000 C   0  0  0  0  0  0  0  0  0  0  0  0
    8.2662   24.3394    0.0000 C   0  0  0  0  0  0  0  0  0  0  0  0
    7.8456   25.7792    0.0000 N   0  0  0  0  0  0  0  0  0  0  0  0
    8.8822   26.8634    0.0000 C   0  0  0  0  0  0  0  0  0  0  0  0
   10.3394   26.5078    0.0000 N   0  0  0  0  0  0  0  0  0  0  0  0
    8.4615   28.3032    0.0000 N   0  0  0  0  0  0  0  0  0  0  0  0
    5.1564   21.0868    0.0000 N   0  0  0  0  0  0  0  0  0  0  0  0
    4.7358   22.5266    0.0000 C   0  0  0  0  0  0  0  0  0  0  0  0
    3.2786   22.8823    0.0000 C   0  0  0  0  0  0  0  0  0  0  0  0
    5.7724   23.6108    0.0000 O   0  0  0  0  0  0  0  0  0  0  0  0
    3.8748   13.8250    0.0000 C   0  0  0  0  0  0  0  0  0  0  0  0
    4.6442   12.5373    0.0000 S   0  0  0  0  0  0  0  0  0  0  0  0
    5.1713   11.1330    0.0000 S   0  0  0  0  0  0  0  0  0  0  0  0
    5.4391    9.6571    0.0000 C   0  0  0  0  0  0  0  0  0  0  0  0
    5.4391    8.1571    0.0000 C   0  0  0  0  0  0  0  0  0  0  0  0
    6.9331    8.0226    0.0000 C   0  0  0  0  0  0  0  0  0  0  0  0
    7.7965    9.2492    0.0000 O   0  0  0  0  0  0  0  0  0  0  0  0
    7.5636    6.6616    0.0000 N   0  0  0  0  0  0  0  0  0  0  0  0
    9.0576    6.5271    0.0000 C   0  0  0  0  0  0  0  0  0  0  0  0
    9.6881    5.1661    0.0000 C   0  0  0  0  0  0  0  0  0  0  0  0
   11.1820    5.0316    0.0000 C   0  0  0  0  0  0  0  0  0  0  0  0
   11.8126    3.6706    0.0000 C   0  0  0  0  0  0  0  0  0  0  0  0
   13.3065    3.5361    0.0000 N   0  0  0  0  0  0  0  0  0  0  0  0
   13.9371    2.1751    0.0000 C   0  0  0  0  0  0  0  0  0  0  0  0
   13.0737    0.9485    0.0000 N   0  0  0  0  0  0  0  0  0  0  0  0
   15.4310    2.0406    0.0000 N   0  0  0  0  0  0  0  0  0  0  0  0
    9.9210    7.7537    0.0000 C   0  0  0  0  0  0  0  0  0  0  0  0
    9.2904    9.1148    0.0000 O   0  0  0  0  0  0  0  0  0  0  0  0
   11.4149    7.6193    0.0000 N   0  0  0  0  0  0  0  0  0  0  0  0
   12.2784    8.8458    0.0000 C   0  0  0  0  0  0  0  0  0  0  0  0
   13.7723    8.7114    0.0000 C   0  0  0  0  0  0  0  0  0  0  0  0
   14.6358    9.9380    0.0000 C   0  0  0  0  0  0  0  0  0  0  0  0
   16.1297    9.8035    0.0000 C   0  0  0  0  0  0  0  0  0  0  0  0
   16.9931   11.0301    0.0000 N   0  0  0  0  0  0  0  0  0  0  0  0
   18.4871   10.8956    0.0000 C   0  0  0  0  0  0  0  0  0  0  0  0
   19.1176    9.5346    0.0000 N   0  0  0  0  0  0  0  0  0  0  0  0
   19.3505   12.1222    0.0000 N   0  0  0  0  0  0  0  0  0  0  0  0
   11.6478   10.2069    0.0000 C   0  0  0  0  0  0  0  0  0  0  0  0
   12.5113   11.4335    0.0000 N   0  0  0  0  0  0  0  0  0  0  0  0
   10.1539   10.3413    0.0000 O   0  0  0  0  0  0  0  0  0  0  0  0
    5.1713    6.6812    0.0000 N   0  0  0  0  0  0  0  0  0  0  0  0
    4.6442    5.2768    0.0000 C   0  0  0  0  0  0  0  0  0  0  0  0
    5.9956    4.6260    0.0000 O   0  0  0  0  0  0  0  0  0  0  0  0
  1  2  1  0
  2  3  1  0
  3  4  1  0
  4  5  1  0
  6  5  1  6
  6  7  1  0
  7  8  1  0
  8  9  2  0
  8 10  1  0
 10 11  1  6
 11 12  1  0
 12 13  1  0
 13 14  1  0
 14 15  1  0
 15 16  2  0
 15 17  1  0
 17 18  1  6
 18 19  1  0
 19 20  2  0
 19 21  1  0
 17 22  1  0
 22 23  1  0
 23 24  2  0
 23 25  1  0
 25 26  1  6
 26 27  1  0
 27 28  2  0
 28 29  1  0
 29 30  2  0
 30 31  1  0
 30 32  1  0
 32 33  2  0
 25 34  1  0
 34 35  1  0
 35 36  2  0
 35 37  1  0
 37 38  1  6
 38 39  1  0
 37 40  1  0
 40 41  1  0
 41 42  2  0
 41 43  1  0
 43 44  1  0
 44 45  1  6
 44 46  1  0
 46 47  1  0
 43 48  1  6
 48 49  1  0
 49 50  2  0
 49 51  1  0
 51 52  1  6
 52 53  1  0
 53 54  2  0
 54 55  1  0
 55 56  2  0
 56 57  1  0
 57 58  2  0
 58 59  1  0
 59 60  2  0
 60 61  1  0
 61 62  2  0
 56 63  1  0
 63 64  2  0
 51 65  1  0
 65 66  1  0
 66 67  2  0
 66 68  1  0
 68 69  1  6
 69 70  1  0
 70 71  1  0
 70 72  1  0
 68 73  1  0
 73 74  1  0
 74 75  2  0
 74 76  1  0
 76 77  1  6
 77 78  1  0
 78 79  1  0
 79 80  1  0
 80 81  1  0
 81 82  2  0
 81 83  1  0
 83 84  1  1
 84 85  1  0
 85 86  2  0
 85 87  1  0
 87 88  1  1
 88 89  1  0
 89 90  1  0
 90 91  1  0
 91 92  1  0
 92 93  2  0
 92 94  1  0
 87 95  1  0
 95 96  1  0
 96 97  2  0
 96 98  1  0
 98 99  1  1
 99100  1  0
100101  1  0
101102  1  0
102103  1  0
103104  2  0
103105  1  0
 98106  1  0
106107  1  0
107108  1  0
107109  2  0
 83110  1  0
110111  1  0
111112  1  0
112113  1  0
113114  1  0
114115  1  1
115116  2  0
115117  1  0
117118  1  0
118119  1  6
119120  1  0
120121  1  0
121122  1  0
122123  1  0
123124  2  0
123125  1  0
118126  1  0
126127  2  0
126128  1  0
128129  1  0
129130  1  6
130131  1  0
131132  1  0
132133  1  0
133134  1  0
134135  2  0
134136  1  0
129137  1  0
137138  1  0
137139  2  0
114140  1  0
140141  1  0
141142  2  0
141  6  1  0
 14 10  1  0
 33 27  1  0
 64 53  1  0
 80 76  1  0
 62 57  1  0
M  END
>  <molecule_chembl_id>  (347) 
CHEMBL5200027

>  <canonical_smiles>  (347) 
CCCCC[C@@H]1NC(=O)[C@@H]2CCCN2C(=O)[C@H](CC(=O)O)NC(=O)[C@H](Cc2ccc(O)cc2)NC(=O)[C@H](CO)NC(=O)[C@H]([C@@H](C)CC)NC(=O)[C@H](Cc2ccc(-c3ccccc3)cc2)NC(=O)[C@H](CC(C)C)NC(=O)[C@@H]2CCCN2C(=O)[C@@H](NC(=O)[C@H](CCCNC(=N)N)NC(=O)[C@H](CCCNC(=N)N)NC(C)=O)CSSC[C@@H](C(=O)N[C@@H](CCCNC(=N)N)C(=O)N[C@@H](CCCNC(=N)N)C(N)=O)NC1=O

>  <pchembl_value_mean>  (347) 
8.3

>  <inchi>  (347) 
InChI=1S/C92H142N28O20S2/c1-7-9-11-22-60-77(129)116-68(83(135)109-61(25-16-39-104-91(98)99)76(128)107-58(74(93)126)23-14-37-102-89(94)95)48-141-142-49-69(117-78(130)62(26-17-40-105-92(100)101)108-75(127)59(106-52(6)122)24-15-38-103-90(96)97)88(140)120-42-19-28-71(120)85(137)113-63(43-50(3)4)79(131)111-65(44-53-29-33-56(34-30-53)55-20-12-10-13-21-55)81(133)118-73(51(5)8-2)86(138)115-67(47-121)82(134)112-64(45-54-31-35-57(123)36-32-54)80(132)114-66(46-72(124)125)87(139)119-41-18-27-70(119)84(136)110-60/h10,12-13,20-21,29-36,50-51,58-71,73,121,123H,7-9,11,14-19,22-28,37-49H2,1-6H3,(H2,93,126)(H,106,122)(H,107,128)(H,108,127)(H,109,135)(H,110,136)(H,111,131)(H,112,134)(H,113,137)(H,114,132)(H,115,138)(H,116,129)(H,117,130)(H,118,133)(H,124,125)(H4,94,95,102)(H4,96,97,103)(H4,98,99,104)(H4,100,101,105)/t51-,58-,59-,60-,61-,62-,63-,64-,65-,66-,67-,68-,69-,70-,71-,73-/m0/s1

$$$$

     RDKit          2D

 44 49  0  0  0  0  0  0  0  0999 V2000
    9.7500   -3.8971    0.0000 C   0  0  0  0  0  0  0  0  0  0  0  0
    8.2500   -3.8971    0.0000 C   0  0  0  0  0  0  0  0  0  0  0  0
    7.5000   -2.5981    0.0000 C   0  0  0  0  0  0  0  0  0  0  0  0
    8.2500   -1.2990    0.0000 O   0  0  0  0  0  0  0  0  0  0  0  0
    6.0000   -2.5981    0.0000 N   0  0  0  0  0  0  0  0  0  0  0  0
    5.2500   -3.8971    0.0000 C   0  0  0  0  0  0  0  0  0  0  0  0
    3.7500   -3.8971    0.0000 C   0  0  0  0  0  0  0  0  0  0  0  0
    3.0000   -2.5981    0.0000 N   0  0  0  0  0  0  0  0  0  0  0  0
    1.5000   -2.5981    0.0000 C   0  0  0  0  0  0  0  0  0  0  0  0
    0.7500   -3.8971    0.0000 C   0  0  0  0  0  0  0  0  0  0  0  0
   -0.7500   -3.8971    0.0000 C   0  0  0  0  0  0  0  0  0  0  0  0
   -1.5000   -5.1962    0.0000 C   0  0  0  0  0  0  0  0  0  0  0  0
   -0.7500   -6.4952    0.0000 O   0  0  0  0  0  0  0  0  0  0  0  0
   -3.0000   -5.1962    0.0000 N   0  0  0  0  0  0  0  0  0  0  0  0
   -3.7500   -6.4952    0.0000 C   0  0  0  0  0  0  0  0  0  0  0  0
   -5.2500   -6.4952    0.0000 C   0  0  0  0  0  0  0  0  0  0  0  0
   -6.1317   -7.7087    0.0000 C   0  0  0  0  0  0  0  0  0  0  0  0
   -7.5583   -7.2452    0.0000 C   0  0  0  0  0  0  0  0  0  0  0  0
   -7.5583   -5.7452    0.0000 C   0  0  0  0  0  0  0  0  0  0  0  0
   -6.1317   -5.2817    0.0000 N   0  0  0  0  0  0  0  0  0  0  0  0
   -5.6682   -3.8551    0.0000 C   0  0  0  0  0  0  0  0  0  0  0  0
   -1.5000   -2.5981    0.0000 N   0  0  0  0  0  0  0  0  0  0  0  0
   -0.7500   -1.2990    0.0000 C   0  0  0  0  0  0  0  0  0  0  0  0
    0.7500   -1.2990    0.0000 C   0  0  0  0  0  0  0  0  0  0  0  0
    1.5000    0.0000    0.0000 C   0  0  0  0  0  0  0  0  0  0  0  0
    0.7500    1.2990    0.0000 C   0  0  0  0  0  0  0  0  0  0  0  0
   -0.7500    1.2990    0.0000 N   0  0  0  0  0  0  0  0  0  0  0  0
   -1.5000    2.5981    0.0000 C   0  0  0  0  0  0  0  0  0  0  0  0
   -3.0000    2.5981    0.0000 C   0  0  0  0  0  0  0  0  0  0  0  0
   -3.7500    3.8971    0.0000 C   0  0  0  0  0  0  0  0  0  0  0  0
   -3.0000    5.1962    0.0000 C   0  0  0  0  0  0  0  0  0  0  0  0
   -1.5000    5.1962    0.0000 C   0  0  0  0  0  0  0  0  0  0  0  0
   -0.7500    6.4952    0.0000 C   0  0  0  0  0  0  0  0  0  0  0  0
    0.7500    6.4952    0.0000 C   0  0  0  0  0  0  0  0  0  0  0  0
    1.5000    5.1962    0.0000 C   0  0  0  0  0  0  0  0  0  0  0  0
    0.7500    3.8971    0.0000 C   0  0  0  0  0  0  0  0  0  0  0  0
    1.5000    2.5981    0.0000 C   0  0  0  0  0  0  0  0  0  0  0  0
   -0.7500    3.8971    0.0000 C   0  0  0  0  0  0  0  0  0  0  0  0
   -1.5000    0.0000    0.0000 C   0  0  0  0  0  0  0  0  0  0  0  0
    3.7500   -1.2990    0.0000 C   0  0  0  0  0  0  0  0  0  0  0  0
    5.2500   -1.2990    0.0000 C   0  0  0  0  0  0  0  0  0  0  0  0
    6.0000   -0.0000    0.0000 C   0  0  0  0  0  0  0  0  0  0  0  0
    5.2500    1.2990    0.0000 C   0  0  0  0  0  0  0  0  0  0  0  0
    4.5000    2.5981    0.0000 N   0  0  0  0  0  0  0  0  0  0  0  0
  1  2  2  0
  2  3  1  0
  3  4  2  0
  3  5  1  0
  5  6  1  0
  6  7  1  0
  7  8  1  0
  8  9  1  0
  9 10  2  0
 10 11  1  0
 11 12  1  0
 12 13  2  0
 12 14  1  0
 14 15  1  0
 15 16  1  0
 16 17  1  0
 17 18  1  0
 18 19  1  0
 19 20  1  0
 20 21  1  0
 11 22  2  0
 22 23  1  0
 23 24  2  0
 24 25  1  0
 25 26  1  0
 26 27  1  0
 27 28  1  0
 28 29  2  0
 29 30  1  0
 30 31  2  0
 31 32  1  0
 32 33  2  0
 33 34  1  0
 34 35  2  0
 35 36  1  0
 36 37  1  0
 36 38  2  0
 27 39  1  0
  8 40  1  0
 40 41  1  0
 41 42  1  6
 42 43  1  0
 43 44  3  0
 41  5  1  0
 24  9  1  0
 38 28  1  0
 20 16  1  0
 39 23  1  0
 38 32  1  0
M  END
>  <molecule_chembl_id>  (348) 
CHEMBL4866701

>  <canonical_smiles>  (348) 
C=CC(=O)N1CCN(c2cc(C(=O)NCC3CCCN3C)nc3c2CCN(c2cccc4cccc(C)c24)C3)C[C@@H]1CC#N

>  <pchembl_value_mean>  (348) 
8.32

>  <inchi>  (348) 
InChI=1S/C35H41N7O2/c1-4-33(43)42-19-18-41(22-27(42)13-15-36)32-20-29(35(44)37-21-26-11-7-16-39(26)3)38-30-23-40(17-14-28(30)32)31-12-6-10-25-9-5-8-24(2)34(25)31/h4-6,8-10,12,20,26-27H,1,7,11,13-14,16-19,21-23H2,2-3H3,(H,37,44)/t26?,27-/m0/s1

$$$$

     RDKit          2D

 44 48  0  0  0  0  0  0  0  0999 V2000
   -9.7500   -1.2990    0.0000 C   0  0  0  0  0  0  0  0  0  0  0  0
   -8.2500   -1.2990    0.0000 C   0  0  0  0  0  0  0  0  0  0  0  0
   -7.5000   -2.5981    0.0000 C   0  0  0  0  0  0  0  0  0  0  0  0
   -8.2500   -3.8971    0.0000 O   0  0  0  0  0  0  0  0  0  0  0  0
   -6.0000   -2.5981    0.0000 N   0  0  0  0  0  0  0  0  0  0  0  0
   -5.2500   -1.2990    0.0000 C   0  0  0  0  0  0  0  0  0  0  0  0
   -3.7500   -1.2990    0.0000 C   0  0  0  0  0  0  0  0  0  0  0  0
   -3.0000   -2.5981    0.0000 N   0  0  0  0  0  0  0  0  0  0  0  0
   -1.5000   -2.5981    0.0000 C   0  0  0  0  0  0  0  0  0  0  0  0
   -0.7500   -3.8971    0.0000 C   0  0  0  0  0  0  0  0  0  0  0  0
   -1.5000   -5.1962    0.0000 C   0  0  0  0  0  0  0  0  0  0  0  0
   -2.2500   -6.4952    0.0000 N   0  0  0  0  0  0  0  0  0  0  0  0
    0.7500   -3.8971    0.0000 C   0  0  0  0  0  0  0  0  0  0  0  0
    1.1772   -4.9037    0.0000 O   0  0  0  0  0  0  0  0  0  0  0  0
    1.5000   -2.5981    0.0000 N   0  0  0  0  0  0  0  0  0  0  0  0
    3.0000   -2.5981    0.0000 C   0  0  0  0  0  0  0  0  0  0  0  0
    3.7500   -1.2990    0.0000 C   0  0  0  0  0  0  0  0  0  0  0  0
    3.0000   -0.0000    0.0000 C   0  0  0  0  0  0  0  0  0  0  0  0
    5.2500   -1.2990    0.0000 C   0  0  0  0  0  0  0  0  0  0  0  0
    6.0000   -2.5981    0.0000 C   0  0  0  0  0  0  0  0  0  0  0  0
    5.2500   -3.8971    0.0000 N   0  0  0  0  0  0  0  0  0  0  0  0
    3.7500   -3.8971    0.0000 C   0  0  0  0  0  0  0  0  0  0  0  0
    3.0000   -5.1962    0.0000 C   0  0  0  0  0  0  0  0  0  0  0  0
    1.9147   -5.3294    0.0000 C   0  0  0  0  0  0  0  0  0  0  0  0
    3.7500   -6.4952    0.0000 C   0  0  0  0  0  0  0  0  0  0  0  0
    0.7500   -1.2990    0.0000 C   0  0  0  0  0  0  0  0  0  0  0  0
    1.5000    0.0000    0.0000 N   0  0  0  0  0  0  0  0  0  0  0  0
    0.7500    1.2990    0.0000 C   0  0  0  0  0  0  0  0  0  0  0  0
    1.5000    2.5981    0.0000 C   0  0  0  0  0  0  0  0  0  0  0  0
    3.0000    2.5981    0.0000 C   0  0  0  0  0  0  0  0  0  0  0  0
    3.7500    1.2990    0.0000 N   0  0  0  0  0  0  0  0  0  0  0  0
    3.7500    3.8971    0.0000 C   0  0  0  0  0  0  0  0  0  0  0  0
    5.2500    3.8971    0.0000 Cl  0  0  0  0  0  0  0  0  0  0  0  0
    3.0000    5.1962    0.0000 C   0  0  0  0  0  0  0  0  0  0  0  0
    1.5000    5.1962    0.0000 C   0  0  0  0  0  0  0  0  0  0  0  0
    0.7500    6.4952    0.0000 Cl  0  0  0  0  0  0  0  0  0  0  0  0
    0.7500    3.8971    0.0000 C   0  0  0  0  0  0  0  0  0  0  0  0
   -0.7500    3.8971    0.0000 F   0  0  0  0  0  0  0  0  0  0  0  0
   -0.7500    1.2990    0.0000 C   0  0  0  0  0  0  0  0  0  0  0  0
   -1.5000    2.5981    0.0000 Cl  0  0  0  0  0  0  0  0  0  0  0  0
   -1.5000    0.0000    0.0000 C   0  0  0  0  0  0  0  0  0  0  0  0
   -0.7500   -1.2990    0.0000 C   0  0  0  0  0  0  0  0  0  0  0  0
   -3.7500   -3.8971    0.0000 C   0  0  0  0  0  0  0  0  0  0  0  0
   -5.2500   -3.8971    0.0000 C   0  0  0  0  0  0  0  0  0  0  0  0
  1  2  2  0
  2  3  1  0
  3  4  2  0
  3  5  1  0
  5  6  1  0
  6  7  1  0
  7  8  1  0
  8  9  1  0
  9 10  2  0
 10 11  1  0
 11 12  3  0
 10 13  1  0
 13 14  2  0
 13 15  1  0
 15 16  1  0
 16 17  2  0
 17 18  1  0
 17 19  1  0
 19 20  2  0
 20 21  1  0
 21 22  2  0
 22 23  1  0
 23 24  1  0
 23 25  1  0
 15 26  1  0
 26 27  2  0
 27 28  1  0
 28 29  1  0
 29 30  2  0
 30 31  1  0
 30 32  1  0
 32 33  1  0
 32 34  2  0
 34 35  1  0
 35 36  1  0
 35 37  2  0
 37 38  1  0
 28 39  2  0
 39 40  1  0
 39 41  1  0
 41 42  2  0
  8 43  1  0
 43 44  1  0
 44  5  1  0
 42  9  1  0
 22 16  1  0
 42 26  1  0
 37 29  1  0
M  END
>  <molecule_chembl_id>  (349) 
CHEMBL4859820

>  <canonical_smiles>  (349) 
C=CC(=O)N1CCN(c2c(C#N)c(=O)n(-c3c(C)ccnc3C(C)C)c3nc(-c4c(N)c(Cl)cc(Cl)c4F)c(Cl)cc23)CC1

>  <pchembl_value_mean>  (349) 
8.36

>  <inchi>  (349) 
InChI=1S/C31H27Cl3FN7O2/c1-5-22(43)40-8-10-41(11-9-40)29-17-12-21(34)27(23-24(35)19(32)13-20(33)25(23)37)39-30(17)42(31(44)18(29)14-36)28-16(4)6-7-38-26(28)15(2)3/h5-7,12-13,15H,1,8-11,37H2,2-4H3

$$$$

     RDKit          2D

140148  0  0  0  0  0  0  0  0999 V2000
   15.4792   -0.1915    0.0000 C   0  0  0  0  0  0  0  0  0  0  0  0
   13.9792   -0.1915    0.0000 C   0  0  0  0  0  0  0  0  0  0  0  0
   13.8112   -1.6821    0.0000 N   0  0  0  0  0  0  0  0  0  0  0  0
   13.3158   -3.0979    0.0000 C   0  0  0  0  0  0  0  0  0  0  0  0
   14.6672   -3.7487    0.0000 O   0  0  0  0  0  0  0  0  0  0  0  0
   12.5177   -4.3680    0.0000 C   0  0  0  0  0  0  0  0  0  0  0  0
   13.6905   -5.3032    0.0000 C   0  0  0  0  0  0  0  0  0  0  0  0
   13.4669   -6.7865    0.0000 C   0  0  0  0  0  0  0  0  0  0  0  0
   12.0706   -7.3345    0.0000 C   0  0  0  0  0  0  0  0  0  0  0  0
   11.8471   -8.8177    0.0000 C   0  0  0  0  0  0  0  0  0  0  0  0
   13.0198   -9.7530    0.0000 C   0  0  0  0  0  0  0  0  0  0  0  0
   14.4161   -9.2050    0.0000 C   0  0  0  0  0  0  0  0  0  0  0  0
   14.6397   -7.7217    0.0000 C   0  0  0  0  0  0  0  0  0  0  0  0
   11.4571   -5.4287    0.0000 N   0  0  0  0  0  0  0  0  0  0  0  0
   10.1870   -6.2267    0.0000 C   0  0  0  0  0  0  0  0  0  0  0  0
   10.8378   -7.5782    0.0000 O   0  0  0  0  0  0  0  0  0  0  0  0
    8.7712   -6.7221    0.0000 C   0  0  0  0  0  0  0  0  0  0  0  0
    7.2806   -6.8901    0.0000 C   0  0  0  0  0  0  0  0  0  0  0  0
    5.7900   -6.7221    0.0000 C   0  0  0  0  0  0  0  0  0  0  0  0
    4.3742   -6.2267    0.0000 C   0  0  0  0  0  0  0  0  0  0  0  0
    3.1041   -5.4287    0.0000 C   0  0  0  0  0  0  0  0  0  0  0  0
    2.0435   -4.3680    0.0000 N   0  0  0  0  0  0  0  0  0  0  0  0
    1.2454   -3.0979    0.0000 C   0  0  0  0  0  0  0  0  0  0  0  0
   -0.1060   -3.7487    0.0000 O   0  0  0  0  0  0  0  0  0  0  0  0
    0.7500   -1.2990    0.0000 C   0  0  0  0  0  0  0  0  0  0  0  0
    1.5000    0.0000    0.0000 C   0  0  0  0  0  0  0  0  0  0  0  0
    0.7500    1.2990    0.0000 C   0  0  0  0  0  0  0  0  0  0  0  0
   -0.7500    1.2990    0.0000 C   0  0  0  0  0  0  0  0  0  0  0  0
   -1.5000    0.0000    0.0000 C   0  0  0  0  0  0  0  0  0  0  0  0
   -0.7500   -1.2990    0.0000 C   0  0  0  0  0  0  0  0  0  0  0  0
   -2.3002   -1.3623    0.0000 C   0  0  0  0  0  0  0  0  0  0  0  0
   -3.7181    0.3198    0.0000 O   0  0  0  0  0  0  0  0  0  0  0  0
   -3.2158   -2.3372    0.0000 N   0  0  0  0  0  0  0  0  0  0  0  0
   -3.8819   -3.4970    0.0000 C   0  0  0  0  0  0  0  0  0  0  0  0
   -5.9040   -2.6302    0.0000 C   0  0  0  0  0  0  0  0  0  0  0  0
   -6.0815   -1.1408    0.0000 C   0  0  0  0  0  0  0  0  0  0  0  0
   -4.8803   -0.2423    0.0000 C   0  0  0  0  0  0  0  0  0  0  0  0
   -5.0578    1.2471    0.0000 C   0  0  0  0  0  0  0  0  0  0  0  0
   -6.4365    1.8381    0.0000 C   0  0  0  0  0  0  0  0  0  0  0  0
   -6.6140    3.3276    0.0000 C   0  0  0  0  0  0  0  0  0  0  0  0
   -7.9927    3.9186    0.0000 C   0  0  0  0  0  0  0  0  0  0  0  0
   -9.1939    3.0201    0.0000 C   0  0  0  0  0  0  0  0  0  0  0  0
   -9.0163    1.5307    0.0000 C   0  0  0  0  0  0  0  0  0  0  0  0
   -7.6377    0.9397    0.0000 C   0  0  0  0  0  0  0  0  0  0  0  0
   -7.4602   -0.5498    0.0000 C   0  0  0  0  0  0  0  0  0  0  0  0
   -4.2626   -4.7792    0.0000 C   0  0  0  0  0  0  0  0  0  0  0  0
   -6.4300   -4.4021    0.0000 O   0  0  0  0  0  0  0  0  0  0  0  0
   -4.3373   -6.1146    0.0000 N   0  0  0  0  0  0  0  0  0  0  0  0
   -4.1021   -7.4312    0.0000 C   0  0  0  0  0  0  0  0  0  0  0  0
   -6.2082   -8.0669    0.0000 C   0  0  0  0  0  0  0  0  0  0  0  0
   -7.3016   -7.0400    0.0000 O   0  0  0  0  0  0  0  0  0  0  0  0
   -3.5696   -8.6581    0.0000 C   0  0  0  0  0  0  0  0  0  0  0  0
   -5.4723   -9.7624    0.0000 O   0  0  0  0  0  0  0  0  0  0  0  0
   -2.7685   -9.7291    0.0000 N   0  0  0  0  0  0  0  0  0  0  0  0
   -1.7420  -10.5864    0.0000 C   0  0  0  0  0  0  0  0  0  0  0  0
   -2.9467  -12.4273    0.0000 C   0  0  0  0  0  0  0  0  0  0  0  0
   -4.4444  -12.3434    0.0000 C   0  0  0  0  0  0  0  0  0  0  0  0
   -5.2658  -13.5985    0.0000 C   0  0  0  0  0  0  0  0  0  0  0  0
   -6.7634  -13.5147    0.0000 N   0  0  0  0  0  0  0  0  0  0  0  0
   -4.5895  -14.9375    0.0000 O   0  0  0  0  0  0  0  0  0  0  0  0
   -0.5454  -11.1840    0.0000 C   0  0  0  0  0  0  0  0  0  0  0  0
   -1.2931  -13.2530    0.0000 O   0  0  0  0  0  0  0  0  0  0  0  0
    0.7567  -11.4895    0.0000 N   0  0  0  0  0  0  0  0  0  0  0  0
    2.0942  -11.4864    0.0000 C   0  0  0  0  0  0  0  0  0  0  0  0
    2.3546  -13.6710    0.0000 C   0  0  0  0  0  0  0  0  0  0  0  0
    1.1534  -14.5694    0.0000 C   0  0  0  0  0  0  0  0  0  0  0  0
   -0.2253  -13.9785    0.0000 C   0  0  0  0  0  0  0  0  0  0  0  0
   -1.4264  -14.8769    0.0000 C   0  0  0  0  0  0  0  0  0  0  0  0
   -1.2489  -16.3664    0.0000 C   0  0  0  0  0  0  0  0  0  0  0  0
   -2.4501  -17.2648    0.0000 C   0  0  0  0  0  0  0  0  0  0  0  0
   -2.2725  -18.7543    0.0000 C   0  0  0  0  0  0  0  0  0  0  0  0
   -0.8939  -19.3453    0.0000 C   0  0  0  0  0  0  0  0  0  0  0  0
    0.3073  -18.4468    0.0000 C   0  0  0  0  0  0  0  0  0  0  0  0
    0.1298  -16.9574    0.0000 C   0  0  0  0  0  0  0  0  0  0  0  0
    1.3309  -16.0589    0.0000 C   0  0  0  0  0  0  0  0  0  0  0  0
    3.3949  -11.1751    0.0000 C   0  0  0  0  0  0  0  0  0  0  0  0
    4.1520  -13.2407    0.0000 O   0  0  0  0  0  0  0  0  0  0  0  0
    4.5887  -10.5721    0.0000 N   0  0  0  0  0  0  0  0  0  0  0  0
    5.6114   -9.7101    0.0000 C   0  0  0  0  0  0  0  0  0  0  0  0
    7.2150  -11.2162    0.0000 C   0  0  0  0  0  0  0  0  0  0  0  0
    6.8724  -12.6765    0.0000 C   0  0  0  0  0  0  0  0  0  0  0  0
    7.9658  -13.7034    0.0000 C   0  0  0  0  0  0  0  0  0  0  0  0
    9.4018  -13.2699    0.0000 C   0  0  0  0  0  0  0  0  0  0  0  0
    9.7444  -11.8096    0.0000 C   0  0  0  0  0  0  0  0  0  0  0  0
    8.6510  -10.7827    0.0000 C   0  0  0  0  0  0  0  0  0  0  0  0
    6.4076   -8.6354    0.0000 C   0  0  0  0  0  0  0  0  0  0  0  0
    8.3154   -9.7311    0.0000 O   0  0  0  0  0  0  0  0  0  0  0  0
    8.1358   -8.0625    0.0000 N   0  0  0  0  0  0  0  0  0  0  0  0
    1.2454    2.7149    0.0000 C   0  0  0  0  0  0  0  0  0  0  0  0
   -0.1060    3.3657    0.0000 O   0  0  0  0  0  0  0  0  0  0  0  0
    2.0435    3.9849    0.0000 N   0  0  0  0  0  0  0  0  0  0  0  0
    3.1041    5.0456    0.0000 C   0  0  0  0  0  0  0  0  0  0  0  0
    4.3742    5.8437    0.0000 C   0  0  0  0  0  0  0  0  0  0  0  0
    3.7234    7.1951    0.0000 C   0  0  0  0  0  0  0  0  0  0  0  0
    2.2276    7.3072    0.0000 O   0  0  0  0  0  0  0  0  0  0  0  0
    4.5684    8.4345    0.0000 N   0  0  0  0  0  0  0  0  0  0  0  0
    3.9175    9.7859    0.0000 C   0  0  0  0  0  0  0  0  0  0  0  0
    4.7625   11.0253    0.0000 C   0  0  0  0  0  0  0  0  0  0  0  0
    4.1117   12.3767    0.0000 C   0  0  0  0  0  0  0  0  0  0  0  0
    2.6159   12.4888    0.0000 O   0  0  0  0  0  0  0  0  0  0  0  0
    4.9567   13.6161    0.0000 N   0  0  0  0  0  0  0  0  0  0  0  0
    4.3059   14.9675    0.0000 C   0  0  0  0  0  0  0  0  0  0  0  0
    5.1508   16.2069    0.0000 C   0  0  0  0  0  0  0  0  0  0  0  0
    4.5000   17.5584    0.0000 C   0  0  0  0  0  0  0  0  0  0  0  0
    3.0042   17.6705    0.0000 O   0  0  0  0  0  0  0  0  0  0  0  0
    5.3450   18.7977    0.0000 N   0  0  0  0  0  0  0  0  0  0  0  0
    4.6942   20.1492    0.0000 C   0  0  0  0  0  0  0  0  0  0  0  0
    5.5391   21.3885    0.0000 C   0  0  0  0  0  0  0  0  0  0  0  0
    4.8883   22.7400    0.0000 C   0  0  0  0  0  0  0  0  0  0  0  0
    5.7333   23.9793    0.0000 C   0  0  0  0  0  0  0  0  0  0  0  0
    5.0825   25.3308    0.0000 C   0  0  0  0  0  0  0  0  0  0  0  0
    5.9274   26.5701    0.0000 N   0  0  0  0  0  0  0  0  0  0  0  0
    3.1984   20.2613    0.0000 C   0  0  0  0  0  0  0  0  0  0  0  0
    2.5475   21.6127    0.0000 N   0  0  0  0  0  0  0  0  0  0  0  0
    2.3534   19.0219    0.0000 O   0  0  0  0  0  0  0  0  0  0  0  0
    5.7900    6.3391    0.0000 N   0  0  0  0  0  0  0  0  0  0  0  0
    7.2806    6.5070    0.0000 C   0  0  0  0  0  0  0  0  0  0  0  0
    7.2806    8.0070    0.0000 O   0  0  0  0  0  0  0  0  0  0  0  0
    8.7712    6.3391    0.0000 C   0  0  0  0  0  0  0  0  0  0  0  0
    9.1050    7.8015    0.0000 C   0  0  0  0  0  0  0  0  0  0  0  0
   10.5383    8.2436    0.0000 C   0  0  0  0  0  0  0  0  0  0  0  0
   10.8721    9.7060    0.0000 C   0  0  0  0  0  0  0  0  0  0  0  0
   12.3055   10.1481    0.0000 N   0  0  0  0  0  0  0  0  0  0  0  0
   12.6392   11.6105    0.0000 C   0  0  0  0  0  0  0  0  0  0  0  0
   11.5397   12.6308    0.0000 N   0  0  0  0  0  0  0  0  0  0  0  0
   14.0726   12.0527    0.0000 N   0  0  0  0  0  0  0  0  0  0  0  0
   10.1870    5.8437    0.0000 N   0  0  0  0  0  0  0  0  0  0  0  0
   11.4571    5.0456    0.0000 C   0  0  0  0  0  0  0  0  0  0  0  0
   12.3923    6.2184    0.0000 O   0  0  0  0  0  0  0  0  0  0  0  0
   12.5177    3.9849    0.0000 C   0  0  0  0  0  0  0  0  0  0  0  0
   13.6905    4.9202    0.0000 C   0  0  0  0  0  0  0  0  0  0  0  0
   15.0868    4.3722    0.0000 C   0  0  0  0  0  0  0  0  0  0  0  0
   16.2596    5.3074    0.0000 C   0  0  0  0  0  0  0  0  0  0  0  0
   17.6559    4.7594    0.0000 N   0  0  0  0  0  0  0  0  0  0  0  0
   18.8286    5.6946    0.0000 C   0  0  0  0  0  0  0  0  0  0  0  0
   18.6050    7.1779    0.0000 N   0  0  0  0  0  0  0  0  0  0  0  0
   20.2249    5.1466    0.0000 N   0  0  0  0  0  0  0  0  0  0  0  0
   13.3158    2.7149    0.0000 N   0  0  0  0  0  0  0  0  0  0  0  0
   13.8112    1.2990    0.0000 C   0  0  0  0  0  0  0  0  0  0  0  0
   15.2736    1.6328    0.0000 O   0  0  0  0  0  0  0  0  0  0  0  0
  2  1  1  6
  2  3  1  0
  3  4  1  0
  4  5  2  0
  4  6  1  0
  6  7  1  1
  7  8  1  0
  8  9  2  0
  9 10  1  0
 10 11  2  0
 11 12  1  0
 12 13  2  0
  6 14  1  0
 14 15  1  0
 15 16  2  0
 15 17  1  0
 17 18  1  0
 18 19  1  0
 19 20  1  0
 20 21  1  0
 21 22  1  0
 22 23  1  0
 23 24  2  0
 23 25  1  0
 25 26  1  0
 26 27  2  0
 27 28  1  0
 28 29  2  0
 29 30  1  0
 29 31  1  0
 31 32  2  0
 31 33  1  0
 33 34  1  0
 34 35  1  1
 35 36  1  0
 36 37  2  0
 37 38  1  0
 38 39  2  0
 39 40  1  0
 40 41  2  0
 41 42  1  0
 42 43  2  0
 43 44  1  0
 44 45  2  0
 34 46  1  0
 46 47  2  0
 46 48  1  0
 48 49  1  0
 49 50  1  6
 50 51  1  0
 49 52  1  0
 52 53  2  0
 52 54  1  0
 54 55  1  0
 55 56  1  6
 56 57  1  0
 57 58  1  0
 58 59  1  0
 58 60  2  0
 55 61  1  0
 61 62  2  0
 61 63  1  0
 63 64  1  0
 64 65  1  1
 65 66  1  0
 66 67  2  0
 67 68  1  0
 68 69  2  0
 69 70  1  0
 70 71  2  0
 71 72  1  0
 72 73  2  0
 73 74  1  0
 74 75  2  0
 64 76  1  0
 76 77  2  0
 76 78  1  0
 78 79  1  0
 79 80  1  6
 80 81  2  0
 81 82  1  0
 82 83  2  0
 83 84  1  0
 84 85  2  0
 79 86  1  0
 86 87  2  0
 86 88  1  0
 27 89  1  0
 89 90  2  0
 89 91  1  0
 91 92  1  0
 92 93  1  0
 93 94  1  1
 94 95  2  0
 94 96  1  0
 96 97  1  0
 97 98  1  0
 98 99  1  0
 99100  2  0
 99101  1  0
101102  1  0
102103  1  0
103104  1  0
104105  2  0
104106  1  0
106107  1  0
107108  1  0
108109  1  0
109110  1  0
110111  1  0
111112  1  0
107113  1  0
113114  1  0
113115  2  0
 93116  1  0
116117  1  0
117118  2  0
117119  1  0
119120  1  6
120121  1  0
121122  1  0
122123  1  0
123124  1  0
124125  2  0
124126  1  0
119127  1  0
127128  1  0
128129  2  0
128130  1  0
130131  1  1
131132  1  0
132133  1  0
133134  1  0
134135  1  0
135136  2  0
135137  1  0
130138  1  0
138139  1  0
139140  2  0
139  2  1  0
 13  8  1  0
 17 88  1  1
 30 25  2  0
 45 36  1  0
 75 66  1  0
 85 80  1  0
 44 39  1  0
 74 69  1  0
M  END
>  <molecule_chembl_id>  (350) 
CHEMBL4867496

>  <canonical_smiles>  (350) 
C[C@@H]1NC(=O)[C@@H](Cc2ccccc2)NC(=O)[C@@H]2CCCCNC(=O)c3cc(cc(c3)C(=O)N[C@H](Cc3ccc4ccccc4c3)C(=O)N[C@@H](CO)C(=O)N[C@@H](CCC(N)=O)C(=O)N[C@H](Cc3ccc4ccccc4c3)C(=O)N[C@@H](c3ccccc3)C(=O)N2)C(=O)NC[C@@H](C(=O)NCCC(=O)NCCC(=O)NC(CCCCN)C(N)=O)NC(=O)[C@H](CCCNC(=N)N)NC(=O)[C@@H](CCCNC(=N)N)NC1=O

>  <pchembl_value_mean>  (350) 
8.36

>  <inchi>  (350) 
InChI=1S/C96H123N25O19/c1-54-81(127)112-68(28-16-40-107-95(100)101)86(132)113-69(29-17-41-108-96(102)103)88(134)119-74(85(131)106-43-36-77(124)104-42-37-78(125)111-66(80(99)126)26-12-14-38-97)52-109-83(129)64-49-63-50-65(51-64)84(130)116-72(47-56-30-32-58-20-8-10-24-61(58)44-56)91(137)120-75(53-122)93(139)114-70(34-35-76(98)123)89(135)118-73(48-57-31-33-59-21-9-11-25-62(59)45-57)92(138)121-79(60-22-6-3-7-23-60)94(140)115-67(27-13-15-39-105-82(63)128)87(133)117-71(90(136)110-54)46-55-18-4-2-5-19-55/h2-11,18-25,30-33,44-45,49-51,54,66-75,79,122H,12-17,26-29,34-43,46-48,52-53,97H2,1H3,(H2,98,123)(H2,99,126)(H,104,124)(H,105,128)(H,106,131)(H,109,129)(H,110,136)(H,111,125)(H,112,127)(H,113,132)(H,114,139)(H,115,140)(H,116,130)(H,117,133)(H,118,135)(H,119,134)(H,120,137)(H,121,138)(H4,100,101,107)(H4,102,103,108)/t54-,66?,67-,68+,69-,70-,71+,72+,73+,74-,75-,79-/m0/s1

$$$$

     RDKit          2D

 43 48  0  0  0  0  0  0  0  0999 V2000
   13.2990   -7.4462    0.0000 C   0  0  0  0  0  0  0  0  0  0  0  0
   11.7990   -7.4462    0.0000 C   0  0  0  0  0  0  0  0  0  0  0  0
   11.0490   -6.1471    0.0000 C   0  0  0  0  0  0  0  0  0  0  0  0
   11.7990   -4.8481    0.0000 O   0  0  0  0  0  0  0  0  0  0  0  0
    9.5490   -6.1471    0.0000 N   0  0  0  0  0  0  0  0  0  0  0  0
    8.7990   -7.4462    0.0000 C   0  0  0  0  0  0  0  0  0  0  0  0
    7.2990   -7.4462    0.0000 C   0  0  0  0  0  0  0  0  0  0  0  0
    6.5490   -6.1471    0.0000 N   0  0  0  0  0  0  0  0  0  0  0  0
    5.0490   -6.1471    0.0000 C   0  0  0  0  0  0  0  0  0  0  0  0
    4.2990   -7.4462    0.0000 N   0  0  0  0  0  0  0  0  0  0  0  0
    2.7990   -7.4462    0.0000 C   0  0  0  0  0  0  0  0  0  0  0  0
    2.3857   -8.8881    0.0000 O   0  0  0  0  0  0  0  0  0  0  0  0
    2.0490   -6.1471    0.0000 N   0  0  0  0  0  0  0  0  0  0  0  0
    2.7990   -4.8481    0.0000 C   0  0  0  0  0  0  0  0  0  0  0  0
    2.7990   -3.3481    0.0000 N   0  0  0  0  0  0  0  0  0  0  0  0
    2.0490   -2.0490    0.0000 C   0  0  0  0  0  0  0  0  0  0  0  0
    3.9018   -2.2805    0.0000 C   0  0  0  0  0  0  0  0  0  0  0  0
    4.4444   -0.8821    0.0000 F   0  0  0  0  0  0  0  0  0  0  0  0
    4.8416   -3.4496    0.0000 C   0  0  0  0  0  0  0  0  0  0  0  0
    4.2990   -4.8481    0.0000 C   0  0  0  0  0  0  0  0  0  0  0  0
    0.7500   -1.2990    0.0000 C   0  0  0  0  0  0  0  0  0  0  0  0
    1.5000    0.0000    0.0000 C   0  0  0  0  0  0  0  0  0  0  0  0
    3.0000    0.0000    0.0000 F   0  0  0  0  0  0  0  0  0  0  0  0
    0.7500    1.2990    0.0000 C   0  0  0  0  0  0  0  0  0  0  0  0
   -0.7500    1.2990    0.0000 C   0  0  0  0  0  0  0  0  0  0  0  0
   -1.5000    0.0000    0.0000 C   0  0  0  0  0  0  0  0  0  0  0  0
   -0.7500   -1.2990    0.0000 C   0  0  0  0  0  0  0  0  0  0  0  0
   -2.0490   -2.0490    0.0000 O   0  0  0  0  0  0  0  0  0  0  0  0
   -2.7990   -3.3481    0.0000 C   0  0  0  0  0  0  0  0  0  0  0  0
   -2.7990   -4.8481    0.0000 C   0  0  0  0  0  0  0  0  0  0  0  0
   -2.0490   -6.1471    0.0000 C   0  0  0  0  0  0  0  0  0  0  0  0
   -0.7500   -6.8971    0.0000 C   0  0  0  0  0  0  0  0  0  0  0  0
   -1.5000   -8.1962    0.0000 C   0  0  0  0  0  0  0  0  0  0  0  0
   -0.7500   -9.4952    0.0000 C   0  0  0  0  0  0  0  0  0  0  0  0
    0.7500   -9.4952    0.0000 N   0  0  0  0  0  0  0  0  0  0  0  0
    1.5000   -8.1962    0.0000 C   0  0  0  0  0  0  0  0  0  0  0  0
    3.0000   -8.1962    0.0000 C   0  0  0  0  0  0  0  0  0  0  0  0
    3.7500   -9.4952    0.0000 C   0  0  0  0  0  0  0  0  0  0  0  0
    3.5538   -7.6228    0.0000 C   0  0  0  0  0  0  0  0  0  0  0  0
    0.7500   -6.8971    0.0000 C   0  0  0  0  0  0  0  0  0  0  0  0
    7.2990   -4.8481    0.0000 C   0  0  0  0  0  0  0  0  0  0  0  0
    6.5490   -3.5490    0.0000 C   0  0  0  0  0  0  0  0  0  0  0  0
    8.7990   -4.8481    0.0000 C   0  0  0  0  0  0  0  0  0  0  0  0
  1  2  2  0
  2  3  1  0
  3  4  2  0
  3  5  1  0
  5  6  1  0
  6  7  1  0
  7  8  1  0
  8  9  1  0
  9 10  2  0
 10 11  1  0
 11 12  2  0
 11 13  1  0
 13 14  1  0
 14 15  2  0
 15 16  1  0
 16 17  2  0
 17 18  1  0
 17 19  1  0
 19 20  2  0
 16 21  1  0
 21 22  2  0
 22 23  1  0
 22 24  1  0
 24 25  2  0
 25 26  1  0
 26 27  2  0
 27 28  1  0
 28 29  1  0
 29 30  1  0
 30 31  1  0
 31 32  1  0
 32 33  2  0
 33 34  1  0
 34 35  2  0
 35 36  1  0
 36 37  1  0
 37 38  1  0
 37 39  1  0
 36 40  2  0
  8 41  1  0
 41 42  1  1
 41 43  1  0
 43  5  1  0
 20  9  1  0
 27 21  1  0
 40 32  1  0
 40 13  1  0
 20 14  1  0
M  END
>  <molecule_chembl_id>  (351) 
CHEMBL4866126

>  <canonical_smiles>  (351) 
C=CC(=O)N1CCN(c2nc(=O)n3c4nc(c(F)cc24)-c2c(F)cccc2OCCCc2ccnc(C(C)C)c2-3)[C@@H](C)C1

>  <pchembl_value_mean>  (351) 
8.37

>  <inchi>  (351) 
InChI=1S/C32H32F2N6O3/c1-5-25(41)38-13-14-39(19(4)17-38)30-21-16-23(34)28-26-22(33)9-6-10-24(26)43-15-7-8-20-11-12-35-27(18(2)3)29(20)40(31(21)36-28)32(42)37-30/h5-6,9-12,16,18-19H,1,7-8,13-15,17H2,2-4H3/t19-/m0/s1

$$$$

     RDKit          2D

 44 51  0  0  0  0  0  0  0  0999 V2000
    3.7500   -1.2990    0.0000 C   0  0  0  0  0  0  0  0  0  0  0  0
    3.0000    0.0000    0.0000 C   0  0  0  0  0  0  0  0  0  0  0  0
    1.5000    0.0000    0.0000 C   0  0  0  0  0  0  0  0  0  0  0  0
    0.7500   -1.2990    0.0000 C   0  0  0  0  0  0  0  0  0  0  0  0
   -0.7500   -1.2990    0.0000 C   0  0  0  0  0  0  0  0  0  0  0  0
   -1.5000    0.0000    0.0000 C   0  0  0  0  0  0  0  0  0  0  0  0
   -0.7500    1.2990    0.0000 C   0  0  0  0  0  0  0  0  0  0  0  0
   -1.5000    2.5981    0.0000 C   0  0  0  0  0  0  0  0  0  0  0  0
   -0.7500    3.8971    0.0000 C   0  0  0  0  0  0  0  0  0  0  0  0
   -1.5000    5.1962    0.0000 O   0  0  0  0  0  0  0  0  0  0  0  0
    0.7500    3.8971    0.0000 C   0  0  0  0  0  0  0  0  0  0  0  0
    1.5000    2.5981    0.0000 C   0  0  0  0  0  0  0  0  0  0  0  0
    3.0000    2.5981    0.0000 C   0  0  0  0  0  0  0  0  0  0  0  0
    3.7500    1.2990    0.0000 N   0  0  0  0  0  0  0  0  0  0  0  0
    5.2500    1.2990    0.0000 C   0  0  0  0  0  0  0  0  0  0  0  0
    6.0000    2.5981    0.0000 C   0  0  0  0  0  0  0  0  0  0  0  0
    7.5000    2.5981    0.0000 C   0  0  0  0  0  0  0  0  0  0  0  0
    8.2500    1.2990    0.0000 N   0  0  0  0  0  0  0  0  0  0  0  0
    7.5000   -0.0000    0.0000 C   0  0  0  0  0  0  0  0  0  0  0  0
    8.2500   -1.2990    0.0000 C   0  0  0  0  0  0  0  0  0  0  0  0
    9.7500   -1.2990    0.0000 C   0  0  0  0  0  0  0  0  0  0  0  0
   10.5000   -0.0000    0.0000 C   0  0  0  0  0  0  0  0  0  0  0  0
   11.5607   -1.0607    0.0000 C   0  0  0  0  0  0  0  0  0  0  0  0
   12.6213   -0.0000    0.0000 C   0  0  0  0  0  0  0  0  0  0  0  0
   11.5607    1.0607    0.0000 O   0  0  0  0  0  0  0  0  0  0  0  0
    9.7500    1.2990    0.0000 C   0  0  0  0  0  0  0  0  0  0  0  0
    8.2500    3.8971    0.0000 N   0  0  0  0  0  0  0  0  0  0  0  0
    7.5000    5.1962    0.0000 C   0  0  0  0  0  0  0  0  0  0  0  0
    8.2500    6.4952    0.0000 O   0  0  0  0  0  0  0  0  0  0  0  0
    9.7500    6.4952    0.0000 C   0  0  0  0  0  0  0  0  0  0  0  0
   10.5000    7.7942    0.0000 C   0  0  0  0  0  0  0  0  0  0  0  0
    9.0328    8.1061    0.0000 C   0  0  0  0  0  0  0  0  0  0  0  0
    8.8760    9.5979    0.0000 C   0  0  0  0  0  0  0  0  0  0  0  0
   10.2463   10.2080    0.0000 C   0  0  0  0  0  0  0  0  0  0  0  0
   11.2500    9.0933    0.0000 N   0  0  0  0  0  0  0  0  0  0  0  0
   12.7172    8.7814    0.0000 C   0  0  0  0  0  0  0  0  0  0  0  0
   12.8740    7.2896    0.0000 C   0  0  0  0  0  0  0  0  0  0  0  0
   14.1731    6.5396    0.0000 F   0  0  0  0  0  0  0  0  0  0  0  0
   11.5037    6.6795    0.0000 C   0  0  0  0  0  0  0  0  0  0  0  0
    6.0000    5.1962    0.0000 N   0  0  0  0  0  0  0  0  0  0  0  0
    5.2500    3.8971    0.0000 C   0  0  0  0  0  0  0  0  0  0  0  0
    3.7500    3.8971    0.0000 C   0  0  0  0  0  0  0  0  0  0  0  0
    3.0000    5.1962    0.0000 F   0  0  0  0  0  0  0  0  0  0  0  0
    0.7500    1.2990    0.0000 C   0  0  0  0  0  0  0  0  0  0  0  0
  1  2  1  0
  2  3  1  0
  3  4  2  0
  4  5  1  0
  5  6  2  0
  6  7  1  0
  7  8  2  0
  8  9  1  0
  9 10  1  0
  9 11  2  0
 11 12  1  0
 12 13  1  0
 13 14  2  0
 14 15  1  0
 15 16  2  0
 16 17  1  0
 17 18  1  0
 18 19  1  0
 19 20  1  0
 20 21  1  0
 21 22  1  0
 22 23  1  0
 23 24  1  0
 24 25  1  0
 22 26  1  0
 17 27  2  0
 27 28  1  0
 28 29  1  0
 29 30  1  0
 31 30  1  1
 31 32  1  0
 32 33  1  0
 33 34  1  0
 34 35  1  0
 35 36  1  0
 36 37  1  0
 37 38  1  6
 37 39  1  0
 28 40  2  0
 40 41  1  0
 41 42  2  0
 42 43  1  0
 12 44  2  0
 44  3  1  0
 44  7  1  0
 42 13  1  0
 41 16  1  0
 26 18  1  0
 35 31  1  0
 25 22  1  0
 39 31  1  0
M  END
>  <molecule_chembl_id>  (352) 
CHEMBL5279657

>  <canonical_smiles>  (352) 
CCc1cccc2cc(O)cc(-c3ncc4c(N5CCCC6(CCO6)C5)nc(OC[C@@]56CCCN5C[C@H](F)C6)nc4c3F)c12

>  <pchembl_value_mean>  (352) 
8.393333

>  <inchi>  (352) 
InChI=1S/C34H37F2N5O3/c1-2-21-6-3-7-22-14-24(42)15-25(27(21)22)29-28(36)30-26(17-37-29)31(40-11-5-9-34(19-40)10-13-44-34)39-32(38-30)43-20-33-8-4-12-41(33)18-23(35)16-33/h3,6-7,14-15,17,23,42H,2,4-5,8-13,16,18-20H2,1H3/t23-,33+,34?/m1/s1

$$$$

     RDKit          2D

 45 50  0  0  0  0  0  0  0  0999 V2000
    9.7500   -3.8971    0.0000 C   0  0  0  0  0  0  0  0  0  0  0  0
    8.2500   -3.8971    0.0000 C   0  0  0  0  0  0  0  0  0  0  0  0
    7.5000   -2.5981    0.0000 C   0  0  0  0  0  0  0  0  0  0  0  0
    8.2500   -1.2990    0.0000 O   0  0  0  0  0  0  0  0  0  0  0  0
    6.0000   -2.5981    0.0000 N   0  0  0  0  0  0  0  0  0  0  0  0
    5.2500   -3.8971    0.0000 C   0  0  0  0  0  0  0  0  0  0  0  0
    3.7500   -3.8971    0.0000 C   0  0  0  0  0  0  0  0  0  0  0  0
    3.0000   -2.5981    0.0000 N   0  0  0  0  0  0  0  0  0  0  0  0
    1.5000   -2.5981    0.0000 C   0  0  0  0  0  0  0  0  0  0  0  0
    0.7500   -3.8971    0.0000 N   0  0  0  0  0  0  0  0  0  0  0  0
   -0.7500   -3.8971    0.0000 C   0  0  0  0  0  0  0  0  0  0  0  0
   -1.5000   -5.1962    0.0000 O   0  0  0  0  0  0  0  0  0  0  0  0
   -3.0000   -5.1962    0.0000 C   0  0  0  0  0  0  0  0  0  0  0  0
   -3.7500   -6.4952    0.0000 C   0  0  0  0  0  0  0  0  0  0  0  0
   -3.1399   -7.8655    0.0000 C   0  0  0  0  0  0  0  0  0  0  0  0
   -4.2546   -8.8692    0.0000 C   0  0  0  0  0  0  0  0  0  0  0  0
   -5.5537   -8.1192    0.0000 C   0  0  0  0  0  0  0  0  0  0  0  0
   -5.2418   -6.6520    0.0000 N   0  0  0  0  0  0  0  0  0  0  0  0
   -6.2455   -5.5373    0.0000 C   0  0  0  0  0  0  0  0  0  0  0  0
   -1.5000   -2.5981    0.0000 N   0  0  0  0  0  0  0  0  0  0  0  0
   -0.7500   -1.2990    0.0000 C   0  0  0  0  0  0  0  0  0  0  0  0
    0.7500   -1.2990    0.0000 C   0  0  0  0  0  0  0  0  0  0  0  0
    1.5000    0.0000    0.0000 C   0  0  0  0  0  0  0  0  0  0  0  0
    0.7500    1.2990    0.0000 C   0  0  0  0  0  0  0  0  0  0  0  0
   -0.7500    1.2990    0.0000 N   0  0  0  0  0  0  0  0  0  0  0  0
   -1.5000    2.5981    0.0000 C   0  0  0  0  0  0  0  0  0  0  0  0
   -0.7500    3.8971    0.0000 C   0  0  0  0  0  0  0  0  0  0  0  0
   -1.5000    5.1962    0.0000 C   0  0  0  0  0  0  0  0  0  0  0  0
   -3.0000    5.1962    0.0000 C   0  0  0  0  0  0  0  0  0  0  0  0
   -3.7500    3.8971    0.0000 C   0  0  0  0  0  0  0  0  0  0  0  0
   -5.2500    3.8971    0.0000 C   0  0  0  0  0  0  0  0  0  0  0  0
   -6.0000    2.5981    0.0000 C   0  0  0  0  0  0  0  0  0  0  0  0
   -5.2500    1.2990    0.0000 C   0  0  0  0  0  0  0  0  0  0  0  0
   -3.7500    1.2990    0.0000 C   0  0  0  0  0  0  0  0  0  0  0  0
   -3.0000    0.0000    0.0000 C   0  0  0  0  0  0  0  0  0  0  0  0
   -2.2500   -1.2990    0.0000 F   0  0  0  0  0  0  0  0  0  0  0  0
   -4.2990   -0.7500    0.0000 F   0  0  0  0  0  0  0  0  0  0  0  0
   -2.2337    0.2197    0.0000 F   0  0  0  0  0  0  0  0  0  0  0  0
   -3.0000    2.5981    0.0000 C   0  0  0  0  0  0  0  0  0  0  0  0
   -1.5000    0.0000    0.0000 C   0  0  0  0  0  0  0  0  0  0  0  0
    3.7500   -1.2990    0.0000 C   0  0  0  0  0  0  0  0  0  0  0  0
    5.2500   -1.2990    0.0000 C   0  0  0  0  0  0  0  0  0  0  0  0
    6.0000   -0.0000    0.0000 C   0  0  0  0  0  0  0  0  0  0  0  0
    5.2500    1.2990    0.0000 C   0  0  0  0  0  0  0  0  0  0  0  0
    4.5000    2.5981    0.0000 N   0  0  0  0  0  0  0  0  0  0  0  0
  1  2  2  0
  2  3  1  0
  3  4  2  0
  3  5  1  0
  5  6  1  0
  6  7  1  0
  7  8  1  0
  8  9  1  0
  9 10  2  0
 10 11  1  0
 11 12  1  0
 12 13  1  0
 14 13  1  6
 14 15  1  0
 15 16  1  0
 16 17  1  0
 17 18  1  0
 18 19  1  0
 11 20  2  0
 20 21  1  0
 21 22  2  0
 22 23  1  0
 23 24  1  0
 24 25  1  0
 25 26  1  0
 26 27  2  0
 27 28  1  0
 28 29  2  0
 29 30  1  0
 30 31  2  0
 31 32  1  0
 32 33  2  0
 33 34  1  0
 34 35  1  0
 35 36  1  0
 35 37  1  0
 35 38  1  0
 34 39  2  0
 25 40  1  0
  8 41  1  0
 41 42  1  0
 42 43  1  6
 43 44  1  0
 44 45  3  0
 42  5  1  0
 22  9  1  0
 39 26  1  0
 18 14  1  0
 40 21  1  0
 39 30  1  0
M  END
>  <molecule_chembl_id>  (353) 
CHEMBL4636611

>  <canonical_smiles>  (353) 
C=CC(=O)N1CCN(c2nc(OC[C@@H]3CCCN3C)nc3c2CCN(c2cccc4cccc(C(F)(F)F)c24)C3)C[C@@H]1CC#N

>  <pchembl_value_mean>  (353) 
8.4

>  <inchi>  (353) 
InChI=1S/C33H36F3N7O2/c1-3-29(44)43-18-17-42(19-23(43)12-14-37)31-25-13-16-41(20-27(25)38-32(39-31)45-21-24-9-6-15-40(24)2)28-11-5-8-22-7-4-10-26(30(22)28)33(34,35)36/h3-5,7-8,10-11,23-24H,1,6,9,12-13,15-21H2,2H3/t23-,24-/m0/s1

$$$$

     RDKit          2D

 45 50  0  0  0  0  0  0  0  0999 V2000
   13.8919   -5.5998    0.0000 C   0  0  0  0  0  0  0  0  0  0  0  0
   12.4113   -5.8404    0.0000 C   0  0  0  0  0  0  0  0  0  0  0  0
   11.4626   -4.6785    0.0000 C   0  0  0  0  0  0  0  0  0  0  0  0
   11.9945   -3.2760    0.0000 O   0  0  0  0  0  0  0  0  0  0  0  0
    9.9821   -4.9191    0.0000 N   0  0  0  0  0  0  0  0  0  0  0  0
    9.4501   -6.3216    0.0000 C   0  0  0  0  0  0  0  0  0  0  0  0
    7.9696   -6.5622    0.0000 C   0  0  0  0  0  0  0  0  0  0  0  0
    7.4377   -7.9648    0.0000 C   0  0  0  0  0  0  0  0  0  0  0  0
    7.0209   -5.4003    0.0000 N   0  0  0  0  0  0  0  0  0  0  0  0
    5.5403   -5.6410    0.0000 C   0  0  0  0  0  0  0  0  0  0  0  0
    5.0084   -7.0435    0.0000 N   0  0  0  0  0  0  0  0  0  0  0  0
    3.5278   -7.2841    0.0000 C   0  0  0  0  0  0  0  0  0  0  0  0
    3.3511   -8.7736    0.0000 O   0  0  0  0  0  0  0  0  0  0  0  0
    2.5792   -6.1222    0.0000 N   0  0  0  0  0  0  0  0  0  0  0  0
    3.1111   -4.7197    0.0000 C   0  0  0  0  0  0  0  0  0  0  0  0
    2.9303   -3.2306    0.0000 N   0  0  0  0  0  0  0  0  0  0  0  0
    2.0782   -1.9961    0.0000 C   0  0  0  0  0  0  0  0  0  0  0  0
    3.9039   -1.9737    0.0000 C   0  0  0  0  0  0  0  0  0  0  0  0
    4.2833   -0.5224    0.0000 F   0  0  0  0  0  0  0  0  0  0  0  0
    4.9710   -3.0278    0.0000 C   0  0  0  0  0  0  0  0  0  0  0  0
    4.5917   -4.4790    0.0000 C   0  0  0  0  0  0  0  0  0  0  0  0
    0.7500   -1.2990    0.0000 C   0  0  0  0  0  0  0  0  0  0  0  0
    1.5000    0.0000    0.0000 C   0  0  0  0  0  0  0  0  0  0  0  0
    3.0000    0.0000    0.0000 F   0  0  0  0  0  0  0  0  0  0  0  0
    0.7500    1.2990    0.0000 C   0  0  0  0  0  0  0  0  0  0  0  0
   -0.7500    1.2990    0.0000 C   0  0  0  0  0  0  0  0  0  0  0  0
   -1.5000    0.0000    0.0000 C   0  0  0  0  0  0  0  0  0  0  0  0
   -0.7500   -1.2990    0.0000 C   0  0  0  0  0  0  0  0  0  0  0  0
   -2.0782   -1.9961    0.0000 O   0  0  0  0  0  0  0  0  0  0  0  0
   -2.9303   -3.2306    0.0000 C   0  0  0  0  0  0  0  0  0  0  0  0
   -3.1111   -4.7197    0.0000 C   0  0  0  0  0  0  0  0  0  0  0  0
   -2.5792   -6.1222    0.0000 C   0  0  0  0  0  0  0  0  0  0  0  0
   -1.4564   -7.1169    0.0000 C   0  0  0  0  0  0  0  0  0  0  0  0
   -0.0000   -7.4758    0.0000 C   0  0  0  0  0  0  0  0  0  0  0  0
   -0.4173   -8.9166    0.0000 C   0  0  0  0  0  0  0  0  0  0  0  0
    0.6218   -9.9984    0.0000 C   0  0  0  0  0  0  0  0  0  0  0  0
    2.0782   -9.6395    0.0000 N   0  0  0  0  0  0  0  0  0  0  0  0
    2.4955   -8.1987    0.0000 C   0  0  0  0  0  0  0  0  0  0  0  0
    3.9519   -7.8397    0.0000 C   0  0  0  0  0  0  0  0  0  0  0  0
    4.9910   -8.9215    0.0000 C   0  0  0  0  0  0  0  0  0  0  0  0
    4.3692   -6.3989    0.0000 C   0  0  0  0  0  0  0  0  0  0  0  0
    1.4564   -7.1169    0.0000 C   0  0  0  0  0  0  0  0  0  0  0  0
    7.5528   -3.9978    0.0000 C   0  0  0  0  0  0  0  0  0  0  0  0
    9.0334   -3.7572    0.0000 C   0  0  0  0  0  0  0  0  0  0  0  0
    9.5653   -2.3547    0.0000 C   0  0  0  0  0  0  0  0  0  0  0  0
  1  2  2  0
  2  3  1  0
  3  4  2  0
  3  5  1  0
  5  6  1  0
  6  7  1  0
  7  8  1  6
  7  9  1  0
  9 10  1  0
 10 11  2  0
 11 12  1  0
 12 13  2  0
 12 14  1  0
 14 15  1  0
 15 16  2  0
 16 17  1  0
 17 18  2  0
 18 19  1  0
 18 20  1  0
 20 21  2  0
 17 22  1  0
 22 23  2  0
 23 24  1  0
 23 25  1  0
 25 26  2  0
 26 27  1  0
 27 28  2  0
 28 29  1  0
 29 30  1  0
 30 31  1  0
 31 32  1  0
 32 33  1  0
 33 34  1  0
 34 35  2  0
 35 36  1  0
 36 37  2  0
 37 38  1  0
 38 39  1  0
 39 40  1  0
 39 41  1  0
 38 42  2  0
  9 43  1  0
 43 44  1  0
 44 45  1  1
 44  5  1  0
 21 10  1  0
 28 22  1  0
 42 34  1  0
 42 14  1  0
 21 15  1  0
M  END
>  <molecule_chembl_id>  (354) 
CHEMBL4870399

>  <canonical_smiles>  (354) 
C=CC(=O)N1C[C@H](C)N(c2nc(=O)n3c4nc(c(F)cc24)-c2c(F)cccc2OCCCCc2ccnc(C(C)C)c2-3)C[C@H]1C

>  <pchembl_value_mean>  (354) 
8.46

>  <inchi>  (354) 
InChI=1S/C34H36F2N6O3/c1-6-27(43)40-17-21(5)41(18-20(40)4)32-23-16-25(36)30-28-24(35)11-9-12-26(28)45-15-8-7-10-22-13-14-37-29(19(2)3)31(22)42(33(23)38-30)34(44)39-32/h6,9,11-14,16,19-21H,1,7-8,10,15,17-18H2,2-5H3/t20-,21+/m1/s1

$$$$

     RDKit          2D

 42 49  0  0  0  0  0  0  0  0999 V2000
    3.0000    0.0000    0.0000 C   0  0  0  0  0  0  0  0  0  0  0  0
    1.5000    0.0000    0.0000 C   0  0  0  0  0  0  0  0  0  0  0  0
    0.7500   -1.2990    0.0000 C   0  0  0  0  0  0  0  0  0  0  0  0
   -0.7500   -1.2990    0.0000 C   0  0  0  0  0  0  0  0  0  0  0  0
   -1.5000    0.0000    0.0000 C   0  0  0  0  0  0  0  0  0  0  0  0
   -0.7500    1.2990    0.0000 C   0  0  0  0  0  0  0  0  0  0  0  0
   -1.5000    2.5981    0.0000 C   0  0  0  0  0  0  0  0  0  0  0  0
   -0.7500    3.8971    0.0000 C   0  0  0  0  0  0  0  0  0  0  0  0
   -1.5000    5.1962    0.0000 O   0  0  0  0  0  0  0  0  0  0  0  0
    0.7500    3.8971    0.0000 C   0  0  0  0  0  0  0  0  0  0  0  0
    1.5000    2.5981    0.0000 C   0  0  0  0  0  0  0  0  0  0  0  0
    3.0000    2.5981    0.0000 N   0  0  0  0  0  0  0  0  0  0  0  0
    3.7500    1.2990    0.0000 C   0  0  0  0  0  0  0  0  0  0  0  0
    5.2500    1.2990    0.0000 C   0  0  0  0  0  0  0  0  0  0  0  0
    6.0000    2.5981    0.0000 C   0  0  0  0  0  0  0  0  0  0  0  0
    5.2500    3.8971    0.0000 C   0  0  0  0  0  0  0  0  0  0  0  0
    6.0000    5.1962    0.0000 N   0  0  0  0  0  0  0  0  0  0  0  0
    7.5000    5.1962    0.0000 C   0  0  0  0  0  0  0  0  0  0  0  0
    8.2500    6.4952    0.0000 O   0  0  0  0  0  0  0  0  0  0  0  0
    9.7500    6.4952    0.0000 C   0  0  0  0  0  0  0  0  0  0  0  0
   10.5000    7.7942    0.0000 C   0  0  0  0  0  0  0  0  0  0  0  0
    9.3509    8.7584    0.0000 C   0  0  0  0  0  0  0  0  0  0  0  0
    9.6114   10.2356    0.0000 N   0  0  0  0  0  0  0  0  0  0  0  0
   11.0209   10.7487    0.0000 C   0  0  0  0  0  0  0  0  0  0  0  0
   11.2814   12.2259    0.0000 C   0  0  0  0  0  0  0  0  0  0  0  0
   10.1324   13.1900    0.0000 O   0  0  0  0  0  0  0  0  0  0  0  0
    8.7228   12.6770    0.0000 C   0  0  0  0  0  0  0  0  0  0  0  0
    8.4623   11.1998    0.0000 C   0  0  0  0  0  0  0  0  0  0  0  0
   11.6491    8.7584    0.0000 C   0  0  0  0  0  0  0  0  0  0  0  0
   11.9095    7.2812    0.0000 C   0  0  0  0  0  0  0  0  0  0  0  0
    8.2500    3.8971    0.0000 N   0  0  0  0  0  0  0  0  0  0  0  0
    7.5000    2.5981    0.0000 C   0  0  0  0  0  0  0  0  0  0  0  0
    8.2500    1.2990    0.0000 N   0  0  0  0  0  0  0  0  0  0  0  0
    9.7500    1.2990    0.0000 C   0  0  0  0  0  0  0  0  0  0  0  0
   10.5000   -0.0000    0.0000 C   0  0  0  0  0  0  0  0  0  0  0  0
   10.8119   -1.4672    0.0000 C   0  0  0  0  0  0  0  0  0  0  0  0
    9.5128   -2.2172    0.0000 C   0  0  0  0  0  0  0  0  0  0  0  0
    8.3981   -1.2135    0.0000 C   0  0  0  0  0  0  0  0  0  0  0  0
    7.5000   -0.0000    0.0000 C   0  0  0  0  0  0  0  0  0  0  0  0
    9.0082    0.1568    0.0000 N   0  0  0  0  0  0  0  0  0  0  0  0
    3.7500    3.8971    0.0000 C   0  0  0  0  0  0  0  0  0  0  0  0
    0.7500    1.2990    0.0000 C   0  0  0  0  0  0  0  0  0  0  0  0
  1  2  1  0
  2  3  2  0
  3  4  1  0
  4  5  2  0
  5  6  1  0
  6  7  2  0
  7  8  1  0
  8  9  1  0
  8 10  2  0
 10 11  1  0
 11 12  1  0
 12 13  1  0
 13 14  1  0
 14 15  1  0
 15 16  2  0
 16 17  1  0
 17 18  2  0
 18 19  1  0
 19 20  1  0
 20 21  1  0
 21 22  1  0
 22 23  1  0
 23 24  1  0
 24 25  1  0
 25 26  1  0
 26 27  1  0
 27 28  1  0
 21 29  1  0
 29 30  1  0
 18 31  1  0
 31 32  2  0
 32 33  1  0
 33 34  1  0
 34 35  1  0
 35 36  1  0
 36 37  1  0
 37 38  1  0
 38 39  1  0
 38 40  1  0
 16 41  1  0
 11 42  2  0
 42  2  1  0
 42  6  1  0
 41 12  1  0
 32 15  1  0
 39 33  1  0
 30 21  1  0
 40 35  1  0
 28 23  1  0
M  END
>  <molecule_chembl_id>  (355) 
CHEMBL4857517

>  <canonical_smiles>  (355) 
Cc1cccc2cc(O)cc(N3CCc4c(nc(OCC5(CN6CCOCC6)CC5)nc4N4CC5CCC(C4)N5)C3)c12

>  <pchembl_value_mean>  (355) 
8.49

>  <inchi>  (355) 
InChI=1S/C33H42N6O3/c1-22-3-2-4-23-15-26(40)16-29(30(22)23)38-10-7-27-28(19-38)35-32(36-31(27)39-17-24-5-6-25(18-39)34-24)42-21-33(8-9-33)20-37-11-13-41-14-12-37/h2-4,15-16,24-25,34,40H,5-14,17-21H2,1H3

$$$$

     RDKit          2D

 34 38  0  0  0  0  0  0  0  0999 V2000
   -9.4441    2.6382    0.0000 C   0  0  0  0  0  0  0  0  0  0  0  0
   -8.1450    1.8882    0.0000 C   0  0  0  0  0  0  0  0  0  0  0  0
   -6.8460    2.6382    0.0000 C   0  0  0  0  0  0  0  0  0  0  0  0
   -6.8460    4.1382    0.0000 O   0  0  0  0  0  0  0  0  0  0  0  0
   -5.5470    1.8882    0.0000 N   0  0  0  0  0  0  0  0  0  0  0  0
   -5.5470    0.3882    0.0000 C   0  0  0  0  0  0  0  0  0  0  0  0
   -4.2479   -0.3618    0.0000 C   0  0  0  0  0  0  0  0  0  0  0  0
   -4.6362   -1.8107    0.0000 C   0  0  0  0  0  0  0  0  0  0  0  0
   -3.8862   -3.1097    0.0000 C   0  0  0  0  0  0  0  0  0  0  0  0
   -2.4373   -3.4979    0.0000 O   0  0  0  0  0  0  0  0  0  0  0  0
   -1.1382   -2.7479    0.0000 C   0  0  0  0  0  0  0  0  0  0  0  0
   -0.3981   -4.0707    0.0000 C   0  0  0  0  0  0  0  0  0  0  0  0
   -0.9721   -5.4565    0.0000 Cl  0  0  0  0  0  0  0  0  0  0  0  0
    1.0891   -3.8749    0.0000 C   0  0  0  0  0  0  0  0  0  0  0  0
    2.0023   -5.0649    0.0000 C   0  0  0  0  0  0  0  0  0  0  0  0
    1.4282   -6.4507    0.0000 C   0  0  0  0  0  0  0  0  0  0  0  0
   -0.0589   -6.6465    0.0000 O   0  0  0  0  0  0  0  0  0  0  0  0
    2.3414   -7.6408    0.0000 C   0  0  0  0  0  0  0  0  0  0  0  0
    3.8285   -7.4450    0.0000 C   0  0  0  0  0  0  0  0  0  0  0  0
    4.4026   -6.0592    0.0000 C   0  0  0  0  0  0  0  0  0  0  0  0
    3.4894   -4.8691    0.0000 C   0  0  0  0  0  0  0  0  0  0  0  0
    4.0635   -3.4833    0.0000 F   0  0  0  0  0  0  0  0  0  0  0  0
    1.6631   -2.4891    0.0000 C   0  0  0  0  0  0  0  0  0  0  0  0
    3.1503   -2.2933    0.0000 F   0  0  0  0  0  0  0  0  0  0  0  0
    0.7500   -1.2990    0.0000 C   0  0  0  0  0  0  0  0  0  0  0  0
    1.5000    0.0000    0.0000 N   0  0  0  0  0  0  0  0  0  0  0  0
    0.7500    1.2990    0.0000 C   0  0  0  0  0  0  0  0  0  0  0  0
   -0.7500    1.2990    0.0000 N   0  0  0  0  0  0  0  0  0  0  0  0
   -1.5000    0.0000    0.0000 C   0  0  0  0  0  0  0  0  0  0  0  0
   -0.7500   -1.2990    0.0000 C   0  0  0  0  0  0  0  0  0  0  0  0
   -2.9489    0.3882    0.0000 N   0  0  0  0  0  0  0  0  0  0  0  0
   -2.9489    1.8882    0.0000 C   0  0  0  0  0  0  0  0  0  0  0  0
   -4.2479    2.6382    0.0000 C   0  0  0  0  0  0  0  0  0  0  0  0
   -4.2479    4.1382    0.0000 C   0  0  0  0  0  0  0  0  0  0  0  0
  1  2  2  0
  2  3  1  0
  3  4  2  0
  3  5  1  0
  5  6  1  0
  7  6  1  6
  7  8  1  0
  8  9  1  0
  9 10  1  0
 10 11  1  0
 11 12  2  0
 12 13  1  0
 12 14  1  0
 14 15  1  0
 15 16  2  0
 16 17  1  0
 16 18  1  0
 18 19  2  0
 19 20  1  0
 20 21  2  0
 21 22  1  0
 14 23  2  0
 23 24  1  0
 23 25  1  0
 25 26  2  0
 26 27  1  0
 27 28  2  0
 28 29  1  0
 29 30  2  0
 29 31  1  0
 31 32  1  0
 32 33  1  0
 33 34  1  6
 33  5  1  0
 31  7  1  0
 30 11  1  0
 21 15  1  0
 30 25  1  0
M  END
>  <molecule_chembl_id>  (356) 
CHEMBL5416793

>  <canonical_smiles>  (356) 
C=CC(=O)N1C[C@H]2CCOc3c(Cl)c(-c4c(O)cccc4F)c(F)c4ncnc(c34)N2C[C@H]1C

>  <pchembl_value_mean>  (356) 
8.52

>  <inchi>  (356) 
InChI=1S/C24H21ClF2N4O3/c1-3-16(33)30-10-13-7-8-34-23-19-22(28-11-29-24(19)31(13)9-12(30)2)21(27)18(20(23)25)17-14(26)5-4-6-15(17)32/h3-6,11-13,32H,1,7-10H2,2H3/t12-,13-/m1/s1

$$$$

     RDKit          2D

 44 49  0  0  0  0  0  0  0  0999 V2000
   -6.2455   -5.5373    0.0000 C   0  0  0  0  0  0  0  0  0  0  0  0
   -5.2418   -6.6520    0.0000 N   0  0  0  0  0  0  0  0  0  0  0  0
   -5.5537   -8.1192    0.0000 C   0  0  0  0  0  0  0  0  0  0  0  0
   -4.2546   -8.8692    0.0000 C   0  0  0  0  0  0  0  0  0  0  0  0
   -3.1399   -7.8655    0.0000 C   0  0  0  0  0  0  0  0  0  0  0  0
   -3.7500   -6.4952    0.0000 C   0  0  0  0  0  0  0  0  0  0  0  0
   -3.0000   -5.1962    0.0000 C   0  0  0  0  0  0  0  0  0  0  0  0
   -1.5000   -5.1962    0.0000 O   0  0  0  0  0  0  0  0  0  0  0  0
   -0.7500   -3.8971    0.0000 C   0  0  0  0  0  0  0  0  0  0  0  0
   -1.5000   -2.5981    0.0000 N   0  0  0  0  0  0  0  0  0  0  0  0
   -0.7500   -1.2990    0.0000 C   0  0  0  0  0  0  0  0  0  0  0  0
    0.7500   -1.2990    0.0000 C   0  0  0  0  0  0  0  0  0  0  0  0
    1.5000   -2.5981    0.0000 C   0  0  0  0  0  0  0  0  0  0  0  0
    3.0000   -2.5981    0.0000 N   0  0  0  0  0  0  0  0  0  0  0  0
    3.7500   -3.8971    0.0000 C   0  0  0  0  0  0  0  0  0  0  0  0
    5.2500   -3.8971    0.0000 C   0  0  0  0  0  0  0  0  0  0  0  0
    6.0000   -2.5981    0.0000 N   0  0  0  0  0  0  0  0  0  0  0  0
    7.5000   -2.5981    0.0000 C   0  0  0  0  0  0  0  0  0  0  0  0
    8.2500   -1.2990    0.0000 O   0  0  0  0  0  0  0  0  0  0  0  0
    8.2500   -3.8971    0.0000 C   0  0  0  0  0  0  0  0  0  0  0  0
    9.7500   -3.8971    0.0000 C   0  0  0  0  0  0  0  0  0  0  0  0
   10.5000   -5.1962    0.0000 C   0  0  0  0  0  0  0  0  0  0  0  0
   12.0000   -5.1962    0.0000 F   0  0  0  0  0  0  0  0  0  0  0  0
    5.2500   -1.2990    0.0000 C   0  0  0  0  0  0  0  0  0  0  0  0
    6.0000    0.0000    0.0000 C   0  0  0  0  0  0  0  0  0  0  0  0
    5.2500    1.2990    0.0000 C   0  0  0  0  0  0  0  0  0  0  0  0
    4.5000    2.5981    0.0000 N   0  0  0  0  0  0  0  0  0  0  0  0
    3.7500   -1.2990    0.0000 C   0  0  0  0  0  0  0  0  0  0  0  0
    0.7500   -3.8971    0.0000 N   0  0  0  0  0  0  0  0  0  0  0  0
    1.5000    0.0000    0.0000 C   0  0  0  0  0  0  0  0  0  0  0  0
    0.7500    1.2990    0.0000 C   0  0  0  0  0  0  0  0  0  0  0  0
   -0.7500    1.2990    0.0000 N   0  0  0  0  0  0  0  0  0  0  0  0
   -1.5000    2.5981    0.0000 C   0  0  0  0  0  0  0  0  0  0  0  0
   -3.0000    2.5981    0.0000 C   0  0  0  0  0  0  0  0  0  0  0  0
   -3.7500    3.8971    0.0000 C   0  0  0  0  0  0  0  0  0  0  0  0
   -3.0000    5.1962    0.0000 C   0  0  0  0  0  0  0  0  0  0  0  0
   -1.5000    5.1962    0.0000 C   0  0  0  0  0  0  0  0  0  0  0  0
   -0.7500    6.4952    0.0000 C   0  0  0  0  0  0  0  0  0  0  0  0
    0.7500    6.4952    0.0000 C   0  0  0  0  0  0  0  0  0  0  0  0
    1.5000    5.1962    0.0000 C   0  0  0  0  0  0  0  0  0  0  0  0
    0.7500    3.8971    0.0000 C   0  0  0  0  0  0  0  0  0  0  0  0
    1.5000    2.5981    0.0000 Cl  0  0  0  0  0  0  0  0  0  0  0  0
   -0.7500    3.8971    0.0000 C   0  0  0  0  0  0  0  0  0  0  0  0
   -1.5000    0.0000    0.0000 C   0  0  0  0  0  0  0  0  0  0  0  0
  1  2  1  0
  2  3  1  0
  3  4  1  0
  4  5  1  0
  5  6  1  0
  6  7  1  6
  7  8  1  0
  8  9  1  0
  9 10  2  0
 10 11  1  0
 11 12  2  0
 12 13  1  0
 13 14  1  0
 14 15  1  0
 15 16  1  0
 16 17  1  0
 17 18  1  0
 18 19  2  0
 18 20  1  0
 20 21  2  0
 21 22  1  0
 22 23  1  0
 17 24  1  0
 24 25  1  6
 25 26  1  0
 26 27  3  0
 24 28  1  0
 13 29  2  0
 12 30  1  0
 30 31  1  0
 31 32  1  0
 32 33  1  0
 33 34  2  0
 34 35  1  0
 35 36  2  0
 36 37  1  0
 37 38  2  0
 38 39  1  0
 39 40  2  0
 40 41  1  0
 41 42  1  0
 41 43  2  0
 32 44  1  0
  6  2  1  0
 29  9  1  0
 43 33  1  0
 44 11  1  0
 28 14  1  0
 43 37  1  0
M  END
>  <molecule_chembl_id>  (357) 
CHEMBL4640636

>  <canonical_smiles>  (357) 
CN1CCC[C@H]1COc1nc2c(c(N3CCN(C(=O)/C=C/CF)[C@@H](CC#N)C3)n1)CCN(c1cccc3cccc(Cl)c13)C2

>  <pchembl_value_mean>  (357) 
8.52

>  <inchi>  (357) 
InChI=1S/C33H37ClFN7O2/c1-39-16-5-8-25(39)22-44-33-37-28-21-40(29-10-3-7-23-6-2-9-27(34)31(23)29)17-13-26(28)32(38-33)41-18-19-42(24(20-41)12-15-36)30(43)11-4-14-35/h2-4,6-7,9-11,24-25H,5,8,12-14,16-22H2,1H3/b11-4+/t24-,25-/m0/s1

$$$$

     RDKit          2D

 45 52  0  0  0  0  0  0  0  0999 V2000
    3.7500   -1.2990    0.0000 C   0  0  0  0  0  0  0  0  0  0  0  0
    3.0000    0.0000    0.0000 C   0  0  0  0  0  0  0  0  0  0  0  0
    1.5000    0.0000    0.0000 C   0  0  0  0  0  0  0  0  0  0  0  0
    0.7500   -1.2990    0.0000 C   0  0  0  0  0  0  0  0  0  0  0  0
    1.5000   -2.5981    0.0000 F   0  0  0  0  0  0  0  0  0  0  0  0
   -0.7500   -1.2990    0.0000 C   0  0  0  0  0  0  0  0  0  0  0  0
   -1.5000    0.0000    0.0000 C   0  0  0  0  0  0  0  0  0  0  0  0
   -0.7500    1.2990    0.0000 C   0  0  0  0  0  0  0  0  0  0  0  0
   -1.5000    2.5981    0.0000 C   0  0  0  0  0  0  0  0  0  0  0  0
   -0.7500    3.8971    0.0000 C   0  0  0  0  0  0  0  0  0  0  0  0
   -1.5000    5.1962    0.0000 O   0  0  0  0  0  0  0  0  0  0  0  0
    0.7500    3.8971    0.0000 C   0  0  0  0  0  0  0  0  0  0  0  0
    1.5000    2.5981    0.0000 C   0  0  0  0  0  0  0  0  0  0  0  0
    3.0000    2.5981    0.0000 C   0  0  0  0  0  0  0  0  0  0  0  0
    3.7500    1.2990    0.0000 N   0  0  0  0  0  0  0  0  0  0  0  0
    5.2500    1.2990    0.0000 C   0  0  0  0  0  0  0  0  0  0  0  0
    6.0000    2.5981    0.0000 C   0  0  0  0  0  0  0  0  0  0  0  0
    7.5000    2.5981    0.0000 C   0  0  0  0  0  0  0  0  0  0  0  0
    8.2500    1.2990    0.0000 N   0  0  0  0  0  0  0  0  0  0  0  0
    7.5000   -0.0000    0.0000 C   0  0  0  0  0  0  0  0  0  0  0  0
    8.2500   -1.2990    0.0000 C   0  0  0  0  0  0  0  0  0  0  0  0
    9.7500   -1.2990    0.0000 C   0  0  0  0  0  0  0  0  0  0  0  0
   10.5000   -0.0000    0.0000 C   0  0  0  0  0  0  0  0  0  0  0  0
   11.5607   -1.0607    0.0000 C   0  0  0  0  0  0  0  0  0  0  0  0
   12.6213   -0.0000    0.0000 C   0  0  0  0  0  0  0  0  0  0  0  0
   11.5607    1.0607    0.0000 O   0  0  0  0  0  0  0  0  0  0  0  0
    9.7500    1.2990    0.0000 C   0  0  0  0  0  0  0  0  0  0  0  0
    8.2500    3.8971    0.0000 N   0  0  0  0  0  0  0  0  0  0  0  0
    7.5000    5.1962    0.0000 C   0  0  0  0  0  0  0  0  0  0  0  0
    8.2500    6.4952    0.0000 O   0  0  0  0  0  0  0  0  0  0  0  0
    9.7500    6.4952    0.0000 C   0  0  0  0  0  0  0  0  0  0  0  0
   10.5000    7.7942    0.0000 C   0  0  0  0  0  0  0  0  0  0  0  0
    9.0328    8.1061    0.0000 C   0  0  0  0  0  0  0  0  0  0  0  0
    8.8760    9.5979    0.0000 C   0  0  0  0  0  0  0  0  0  0  0  0
   10.2463   10.2080    0.0000 C   0  0  0  0  0  0  0  0  0  0  0  0
   11.2500    9.0933    0.0000 N   0  0  0  0  0  0  0  0  0  0  0  0
   12.7172    8.7814    0.0000 C   0  0  0  0  0  0  0  0  0  0  0  0
   12.8740    7.2896    0.0000 C   0  0  0  0  0  0  0  0  0  0  0  0
   14.1731    6.5396    0.0000 F   0  0  0  0  0  0  0  0  0  0  0  0
   11.5037    6.6795    0.0000 C   0  0  0  0  0  0  0  0  0  0  0  0
    6.0000    5.1962    0.0000 N   0  0  0  0  0  0  0  0  0  0  0  0
    5.2500    3.8971    0.0000 C   0  0  0  0  0  0  0  0  0  0  0  0
    3.7500    3.8971    0.0000 C   0  0  0  0  0  0  0  0  0  0  0  0
    3.0000    5.1962    0.0000 F   0  0  0  0  0  0  0  0  0  0  0  0
    0.7500    1.2990    0.0000 C   0  0  0  0  0  0  0  0  0  0  0  0
  1  2  1  0
  2  3  1  0
  3  4  2  0
  4  5  1  0
  4  6  1  0
  6  7  2  0
  7  8  1  0
  8  9  2  0
  9 10  1  0
 10 11  1  0
 10 12  2  0
 12 13  1  0
 13 14  1  0
 14 15  2  0
 15 16  1  0
 16 17  2  0
 17 18  1  0
 18 19  1  0
 19 20  1  0
 20 21  1  0
 21 22  1  0
 22 23  1  0
 23 24  1  0
 24 25  1  0
 25 26  1  0
 23 27  1  0
 18 28  2  0
 28 29  1  0
 29 30  1  0
 30 31  1  0
 32 31  1  1
 32 33  1  0
 33 34  1  0
 34 35  1  0
 35 36  1  0
 36 37  1  0
 37 38  1  0
 38 39  1  6
 38 40  1  0
 29 41  2  0
 41 42  1  0
 42 43  2  0
 43 44  1  0
 13 45  2  0
 45  3  1  0
 45  8  1  0
 43 14  1  0
 42 17  1  0
 27 19  1  0
 36 32  1  0
 26 23  1  0
 40 32  1  0
M  END
>  <molecule_chembl_id>  (358) 
CHEMBL5279240

>  <canonical_smiles>  (358) 
CCc1c(F)ccc2cc(O)cc(-c3ncc4c(N5CCCC6(CCO6)C5)nc(OC[C@@]56CCCN5C[C@H](F)C6)nc4c3F)c12

>  <pchembl_value_mean>  (358) 
8.580001

>  <inchi>  (358) 
InChI=1S/C34H36F3N5O3/c1-2-23-26(36)6-5-20-13-22(43)14-24(27(20)23)29-28(37)30-25(16-38-29)31(41-10-4-8-34(18-41)9-12-45-34)40-32(39-30)44-19-33-7-3-11-42(33)17-21(35)15-33/h5-6,13-14,16,21,43H,2-4,7-12,15,17-19H2,1H3/t21-,33+,34?/m1/s1

$$$$

     RDKit          2D

 44 51  0  0  0  0  0  0  0  0999 V2000
    3.0000    0.0000    0.0000 O   0  0  0  0  0  0  0  0  0  0  0  0
    1.5000    0.0000    0.0000 C   0  0  0  0  0  0  0  0  0  0  0  0
    0.7500   -1.2990    0.0000 C   0  0  0  0  0  0  0  0  0  0  0  0
   -0.7500   -1.2990    0.0000 C   0  0  0  0  0  0  0  0  0  0  0  0
   -1.5000   -2.5981    0.0000 C   0  0  0  0  0  0  0  0  0  0  0  0
   -3.0000   -2.5981    0.0000 N   0  0  0  0  0  0  0  0  0  0  0  0
   -3.7500   -3.8971    0.0000 C   0  0  0  0  0  0  0  0  0  0  0  0
   -3.0000   -5.1962    0.0000 C   0  0  0  0  0  0  0  0  0  0  0  0
   -3.7500   -6.4952    0.0000 C   0  0  0  0  0  0  0  0  0  0  0  0
   -5.2500   -6.4952    0.0000 N   0  0  0  0  0  0  0  0  0  0  0  0
   -6.0000   -5.1962    0.0000 C   0  0  0  0  0  0  0  0  0  0  0  0
   -7.5000   -5.1962    0.0000 C   0  0  0  0  0  0  0  0  0  0  0  0
   -8.2500   -6.4952    0.0000 C   0  0  0  0  0  0  0  0  0  0  0  0
   -7.5000   -7.7942    0.0000 C   0  0  0  0  0  0  0  0  0  0  0  0
   -8.9489   -8.1825    0.0000 C   0  0  0  0  0  0  0  0  0  0  0  0
   -8.5607   -9.6313    0.0000 C   0  0  0  0  0  0  0  0  0  0  0  0
   -7.1118   -9.2431    0.0000 O   0  0  0  0  0  0  0  0  0  0  0  0
   -6.0000   -7.7942    0.0000 C   0  0  0  0  0  0  0  0  0  0  0  0
   -3.0000   -7.7942    0.0000 N   0  0  0  0  0  0  0  0  0  0  0  0
   -1.5000   -7.7942    0.0000 C   0  0  0  0  0  0  0  0  0  0  0  0
   -0.7500   -9.0933    0.0000 O   0  0  0  0  0  0  0  0  0  0  0  0
   -1.5000  -10.3923    0.0000 C   0  0  0  0  0  0  0  0  0  0  0  0
   -0.7500  -11.6913    0.0000 C   0  0  0  0  0  0  0  0  0  0  0  0
    0.2537  -10.5766    0.0000 C   0  0  0  0  0  0  0  0  0  0  0  0
    1.6240  -11.1867    0.0000 C   0  0  0  0  0  0  0  0  0  0  0  0
    1.4672  -12.6785    0.0000 C   0  0  0  0  0  0  0  0  0  0  0  0
    0.0000  -12.9904    0.0000 N   0  0  0  0  0  0  0  0  0  0  0  0
   -1.0037  -14.1051    0.0000 C   0  0  0  0  0  0  0  0  0  0  0  0
   -2.3740  -13.4950    0.0000 C   0  0  0  0  0  0  0  0  0  0  0  0
   -3.6731  -14.2450    0.0000 F   0  0  0  0  0  0  0  0  0  0  0  0
   -2.2172  -12.0032    0.0000 C   0  0  0  0  0  0  0  0  0  0  0  0
   -0.7500   -6.4952    0.0000 N   0  0  0  0  0  0  0  0  0  0  0  0
   -1.5000   -5.1962    0.0000 C   0  0  0  0  0  0  0  0  0  0  0  0
   -0.7500   -3.8971    0.0000 C   0  0  0  0  0  0  0  0  0  0  0  0
    0.7500   -3.8971    0.0000 F   0  0  0  0  0  0  0  0  0  0  0  0
   -1.5000    0.0000    0.0000 C   0  0  0  0  0  0  0  0  0  0  0  0
   -3.0000    0.0000    0.0000 C   0  0  0  0  0  0  0  0  0  0  0  0
   -3.7500   -1.2990    0.0000 F   0  0  0  0  0  0  0  0  0  0  0  0
   -3.7500    1.2990    0.0000 C   0  0  0  0  0  0  0  0  0  0  0  0
   -5.2500    1.2990    0.0000 F   0  0  0  0  0  0  0  0  0  0  0  0
   -3.0000    2.5981    0.0000 C   0  0  0  0  0  0  0  0  0  0  0  0
   -1.5000    2.5981    0.0000 C   0  0  0  0  0  0  0  0  0  0  0  0
   -0.7500    1.2990    0.0000 C   0  0  0  0  0  0  0  0  0  0  0  0
    0.7500    1.2990    0.0000 C   0  0  0  0  0  0  0  0  0  0  0  0
  1  2  1  0
  2  3  2  0
  3  4  1  0
  4  5  1  0
  5  6  2  0
  6  7  1  0
  7  8  2  0
  8  9  1  0
  9 10  1  0
 10 11  1  0
 11 12  1  0
 12 13  1  0
 13 14  1  0
 14 15  1  0
 15 16  1  0
 16 17  1  0
 14 18  1  0
  9 19  2  0
 19 20  1  0
 20 21  1  0
 21 22  1  0
 23 22  1  1
 23 24  1  0
 24 25  1  0
 25 26  1  0
 26 27  1  0
 27 28  1  0
 28 29  1  0
 29 30  1  6
 29 31  1  0
 20 32  2  0
 32 33  1  0
 33 34  2  0
 34 35  1  0
  4 36  2  0
 36 37  1  0
 37 38  1  0
 37 39  2  0
 39 40  1  0
 39 41  1  0
 41 42  2  0
 42 43  1  0
 43 44  2  0
 44  2  1  0
 34  5  1  0
 43 36  1  0
 33  8  1  0
 18 10  1  0
 27 23  1  0
 17 14  1  0
 31 23  1  0
M  END
>  <molecule_chembl_id>  (359) 
CHEMBL5269272

>  <canonical_smiles>  (359) 
Oc1cc(-c2ncc3c(N4CCCC5(CCO5)C4)nc(OC[C@@]45CCCN4C[C@H](F)C5)nc3c2F)c2c(F)c(F)ccc2c1

>  <pchembl_value_mean>  (359) 
8.583333

>  <inchi>  (359) 
InChI=1S/C32H31F4N5O3/c33-19-13-31(5-1-9-41(31)15-19)17-43-30-38-28-22(29(39-30)40-8-2-6-32(16-40)7-10-44-32)14-37-27(26(28)36)21-12-20(42)11-18-3-4-23(34)25(35)24(18)21/h3-4,11-12,14,19,42H,1-2,5-10,13,15-17H2/t19-,31+,32?/m1/s1

$$$$

     RDKit          2D

 44 51  0  0  0  0  0  0  0  0999 V2000
   -2.6833   -4.9517    0.0000 N   0  0  0  0  0  0  0  0  0  0  0  0
   -4.1099   -4.4882    0.0000 C   0  0  0  0  0  0  0  0  0  0  0  0
   -5.5365   -4.0247    0.0000 C   0  0  0  0  0  0  0  0  0  0  0  0
   -6.7500   -4.9063    0.0000 C   0  0  0  0  0  0  0  0  0  0  0  0
   -6.7500   -6.4063    0.0000 N   0  0  0  0  0  0  0  0  0  0  0  0
   -7.9635   -4.0247    0.0000 S   0  0  0  0  0  0  0  0  0  0  0  0
   -7.5000   -2.5981    0.0000 C   0  0  0  0  0  0  0  0  0  0  0  0
   -8.2500   -1.2990    0.0000 C   0  0  0  0  0  0  0  0  0  0  0  0
   -9.7500   -1.2990    0.0000 F   0  0  0  0  0  0  0  0  0  0  0  0
   -7.5000   -0.0000    0.0000 C   0  0  0  0  0  0  0  0  0  0  0  0
   -6.0000    0.0000    0.0000 C   0  0  0  0  0  0  0  0  0  0  0  0
   -5.2500   -1.2990    0.0000 C   0  0  0  0  0  0  0  0  0  0  0  0
   -3.7500   -1.2990    0.0000 C   0  0  0  0  0  0  0  0  0  0  0  0
   -3.0000   -2.5981    0.0000 C   0  0  0  0  0  0  0  0  0  0  0  0
   -3.4134   -4.0400    0.0000 Cl  0  0  0  0  0  0  0  0  0  0  0  0
   -1.5000   -2.5981    0.0000 C   0  0  0  0  0  0  0  0  0  0  0  0
   -0.7500   -1.2990    0.0000 C   0  0  0  0  0  0  0  0  0  0  0  0
    0.7500   -1.2990    0.0000 C   0  0  0  0  0  0  0  0  0  0  0  0
    1.5000   -2.5981    0.0000 N   0  0  0  0  0  0  0  0  0  0  0  0
    3.0000   -2.5981    0.0000 C   0  0  0  0  0  0  0  0  0  0  0  0
    3.7500   -3.8971    0.0000 C   0  0  0  0  0  0  0  0  0  0  0  0
    4.0619   -5.3643    0.0000 C   0  0  0  0  0  0  0  0  0  0  0  0
    2.7628   -6.1143    0.0000 C   0  0  0  0  0  0  0  0  0  0  0  0
    1.6481   -5.1106    0.0000 C   0  0  0  0  0  0  0  0  0  0  0  0
    0.7500   -3.8971    0.0000 C   0  0  0  0  0  0  0  0  0  0  0  0
    2.2582   -3.7403    0.0000 N   0  0  0  0  0  0  0  0  0  0  0  0
    1.5000    0.0000    0.0000 N   0  0  0  0  0  0  0  0  0  0  0  0
    0.7500    1.2990    0.0000 C   0  0  0  0  0  0  0  0  0  0  0  0
    1.5000    2.5981    0.0000 O   0  0  0  0  0  0  0  0  0  0  0  0
    3.0000    2.5981    0.0000 C   0  0  0  0  0  0  0  0  0  0  0  0
    3.7500    3.8971    0.0000 C   0  0  0  0  0  0  0  0  0  0  0  0
    2.2828    4.2090    0.0000 C   0  0  0  0  0  0  0  0  0  0  0  0
    2.1260    5.7008    0.0000 C   0  0  0  0  0  0  0  0  0  0  0  0
    3.4963    6.3109    0.0000 C   0  0  0  0  0  0  0  0  0  0  0  0
    4.5000    5.1962    0.0000 N   0  0  0  0  0  0  0  0  0  0  0  0
    5.9672    4.8843    0.0000 C   0  0  0  0  0  0  0  0  0  0  0  0
    6.1240    3.3925    0.0000 C   0  0  0  0  0  0  0  0  0  0  0  0
    7.4231    2.6425    0.0000 F   0  0  0  0  0  0  0  0  0  0  0  0
    4.7537    2.7824    0.0000 C   0  0  0  0  0  0  0  0  0  0  0  0
   -0.7500    1.2990    0.0000 N   0  0  0  0  0  0  0  0  0  0  0  0
   -1.5000    0.0000    0.0000 C   0  0  0  0  0  0  0  0  0  0  0  0
   -3.0000    0.0000    0.0000 C   0  0  0  0  0  0  0  0  0  0  0  0
   -3.7500    1.2990    0.0000 F   0  0  0  0  0  0  0  0  0  0  0  0
   -6.0000   -2.5981    0.0000 C   0  0  0  0  0  0  0  0  0  0  0  0
  1  2  3  0
  2  3  1  0
  3  4  2  0
  4  5  1  0
  4  6  1  0
  6  7  1  0
  7  8  2  0
  8  9  1  0
  8 10  1  0
 10 11  2  0
 11 12  1  0
 12 13  1  0
 13 14  2  0
 14 15  1  0
 14 16  1  0
 16 17  2  0
 17 18  1  0
 18 19  1  0
 19 20  1  0
 20 21  1  0
 21 22  1  0
 22 23  1  0
 23 24  1  0
 24 25  1  0
 24 26  1  0
 18 27  2  0
 27 28  1  0
 28 29  1  0
 29 30  1  0
 31 30  1  1
 31 32  1  0
 32 33  1  0
 33 34  1  0
 34 35  1  0
 35 36  1  0
 36 37  1  0
 37 38  1  6
 37 39  1  0
 28 40  2  0
 40 41  1  0
 41 42  2  0
 42 43  1  0
 12 44  2  0
 44  3  1  0
 44  7  1  0
 42 13  1  0
 41 17  1  0
 25 19  1  0
 35 31  1  0
 26 21  1  0
 39 31  1  0
M  END
>  <molecule_chembl_id>  (360) 
CHEMBL5428238

>  <canonical_smiles>  (360) 
N#Cc1c(N)sc2c(F)ccc(-c3c(Cl)cc4c(N5CC6CCC(C5)N6)nc(OC[C@@]56CCCN5C[C@H](F)C6)nc4c3F)c12

>  <pchembl_value_mean>  (360) 
8.586667

>  <inchi>  (360) 
InChI=1S/C31H29ClF3N7OS/c32-21-8-19-26(25(35)24(21)18-4-5-22(34)27-23(18)20(10-36)28(37)44-27)39-30(40-29(19)41-12-16-2-3-17(13-41)38-16)43-14-31-6-1-7-42(31)11-15(33)9-31/h4-5,8,15-17,38H,1-3,6-7,9,11-14,37H2/t15-,16?,17?,31+/m1/s1

$$$$

     RDKit          2D

 44 49  0  0  0  0  0  0  0  0999 V2000
   13.8919   -5.5998    0.0000 C   0  0  0  0  0  0  0  0  0  0  0  0
   12.4113   -5.8404    0.0000 C   0  0  0  0  0  0  0  0  0  0  0  0
   11.4626   -4.6785    0.0000 C   0  0  0  0  0  0  0  0  0  0  0  0
   11.9945   -3.2760    0.0000 O   0  0  0  0  0  0  0  0  0  0  0  0
    9.9821   -4.9191    0.0000 N   0  0  0  0  0  0  0  0  0  0  0  0
    9.4501   -6.3216    0.0000 C   0  0  0  0  0  0  0  0  0  0  0  0
    7.9696   -6.5622    0.0000 C   0  0  0  0  0  0  0  0  0  0  0  0
    7.0209   -5.4003    0.0000 N   0  0  0  0  0  0  0  0  0  0  0  0
    5.5403   -5.6410    0.0000 C   0  0  0  0  0  0  0  0  0  0  0  0
    5.0084   -7.0435    0.0000 N   0  0  0  0  0  0  0  0  0  0  0  0
    3.5278   -7.2841    0.0000 C   0  0  0  0  0  0  0  0  0  0  0  0
    3.3511   -8.7736    0.0000 O   0  0  0  0  0  0  0  0  0  0  0  0
    2.5792   -6.1222    0.0000 N   0  0  0  0  0  0  0  0  0  0  0  0
    3.1111   -4.7197    0.0000 C   0  0  0  0  0  0  0  0  0  0  0  0
    2.9303   -3.2306    0.0000 N   0  0  0  0  0  0  0  0  0  0  0  0
    2.0782   -1.9961    0.0000 C   0  0  0  0  0  0  0  0  0  0  0  0
    3.9039   -1.9737    0.0000 C   0  0  0  0  0  0  0  0  0  0  0  0
    4.2833   -0.5224    0.0000 F   0  0  0  0  0  0  0  0  0  0  0  0
    4.9710   -3.0278    0.0000 C   0  0  0  0  0  0  0  0  0  0  0  0
    4.5917   -4.4790    0.0000 C   0  0  0  0  0  0  0  0  0  0  0  0
    0.7500   -1.2990    0.0000 C   0  0  0  0  0  0  0  0  0  0  0  0
    1.5000    0.0000    0.0000 C   0  0  0  0  0  0  0  0  0  0  0  0
    3.0000    0.0000    0.0000 F   0  0  0  0  0  0  0  0  0  0  0  0
    0.7500    1.2990    0.0000 C   0  0  0  0  0  0  0  0  0  0  0  0
   -0.7500    1.2990    0.0000 C   0  0  0  0  0  0  0  0  0  0  0  0
   -1.5000    0.0000    0.0000 C   0  0  0  0  0  0  0  0  0  0  0  0
   -0.7500   -1.2990    0.0000 C   0  0  0  0  0  0  0  0  0  0  0  0
   -2.0782   -1.9961    0.0000 O   0  0  0  0  0  0  0  0  0  0  0  0
   -2.9303   -3.2306    0.0000 C   0  0  0  0  0  0  0  0  0  0  0  0
   -3.1111   -4.7197    0.0000 C   0  0  0  0  0  0  0  0  0  0  0  0
   -2.5792   -6.1222    0.0000 C   0  0  0  0  0  0  0  0  0  0  0  0
   -1.4564   -7.1169    0.0000 C   0  0  0  0  0  0  0  0  0  0  0  0
   -0.0000   -7.4758    0.0000 C   0  0  0  0  0  0  0  0  0  0  0  0
   -0.4173   -8.9166    0.0000 C   0  0  0  0  0  0  0  0  0  0  0  0
    0.6218   -9.9984    0.0000 C   0  0  0  0  0  0  0  0  0  0  0  0
    2.0782   -9.6395    0.0000 N   0  0  0  0  0  0  0  0  0  0  0  0
    2.4955   -8.1987    0.0000 C   0  0  0  0  0  0  0  0  0  0  0  0
    3.9519   -7.8397    0.0000 C   0  0  0  0  0  0  0  0  0  0  0  0
    4.9910   -8.9215    0.0000 C   0  0  0  0  0  0  0  0  0  0  0  0
    4.3692   -6.3989    0.0000 C   0  0  0  0  0  0  0  0  0  0  0  0
    1.4564   -7.1169    0.0000 C   0  0  0  0  0  0  0  0  0  0  0  0
    7.5528   -3.9978    0.0000 C   0  0  0  0  0  0  0  0  0  0  0  0
    6.6041   -2.8359    0.0000 C   0  0  0  0  0  0  0  0  0  0  0  0
    9.0334   -3.7572    0.0000 C   0  0  0  0  0  0  0  0  0  0  0  0
  1  2  2  0
  2  3  1  0
  3  4  2  0
  3  5  1  0
  5  6  1  0
  6  7  1  0
  7  8  1  0
  8  9  1  0
  9 10  2  0
 10 11  1  0
 11 12  2  0
 11 13  1  0
 13 14  1  0
 14 15  2  0
 15 16  1  0
 16 17  2  0
 17 18  1  0
 17 19  1  0
 19 20  2  0
 16 21  1  0
 21 22  2  0
 22 23  1  0
 22 24  1  0
 24 25  2  0
 25 26  1  0
 26 27  2  0
 27 28  1  0
 28 29  1  0
 29 30  1  0
 30 31  1  0
 31 32  1  0
 32 33  1  0
 33 34  2  0
 34 35  1  0
 35 36  2  0
 36 37  1  0
 37 38  1  0
 38 39  1  0
 38 40  1  0
 37 41  2  0
  8 42  1  0
 42 43  1  1
 42 44  1  0
 44  5  1  0
 20  9  1  0
 27 21  1  0
 41 33  1  0
 41 13  1  0
 20 14  1  0
M  END
>  <molecule_chembl_id>  (361) 
CHEMBL4869082

>  <canonical_smiles>  (361) 
C=CC(=O)N1CCN(c2nc(=O)n3c4nc(c(F)cc24)-c2c(F)cccc2OCCCCc2ccnc(C(C)C)c2-3)[C@@H](C)C1

>  <pchembl_value_mean>  (361) 
8.62

>  <inchi>  (361) 
InChI=1S/C33H34F2N6O3/c1-5-26(42)39-14-15-40(20(4)18-39)31-22-17-24(35)29-27-23(34)10-8-11-25(27)44-16-7-6-9-21-12-13-36-28(19(2)3)30(21)41(32(22)37-29)33(43)38-31/h5,8,10-13,17,19-20H,1,6-7,9,14-16,18H2,2-4H3/t20-/m0/s1

$$$$

     RDKit          2D

 44 49  0  0  0  0  0  0  0  0999 V2000
   13.2990   -7.4462    0.0000 C   0  0  0  0  0  0  0  0  0  0  0  0
   11.7990   -7.4462    0.0000 C   0  0  0  0  0  0  0  0  0  0  0  0
   11.0490   -6.1471    0.0000 C   0  0  0  0  0  0  0  0  0  0  0  0
   11.7990   -4.8481    0.0000 O   0  0  0  0  0  0  0  0  0  0  0  0
    9.5490   -6.1471    0.0000 N   0  0  0  0  0  0  0  0  0  0  0  0
    8.7990   -7.4462    0.0000 C   0  0  0  0  0  0  0  0  0  0  0  0
    7.2990   -7.4462    0.0000 C   0  0  0  0  0  0  0  0  0  0  0  0
    6.5490   -8.7452    0.0000 C   0  0  0  0  0  0  0  0  0  0  0  0
    6.5490   -6.1471    0.0000 N   0  0  0  0  0  0  0  0  0  0  0  0
    5.0490   -6.1471    0.0000 C   0  0  0  0  0  0  0  0  0  0  0  0
    4.2990   -7.4462    0.0000 N   0  0  0  0  0  0  0  0  0  0  0  0
    2.7990   -7.4462    0.0000 C   0  0  0  0  0  0  0  0  0  0  0  0
    2.3857   -8.8881    0.0000 O   0  0  0  0  0  0  0  0  0  0  0  0
    2.0490   -6.1471    0.0000 N   0  0  0  0  0  0  0  0  0  0  0  0
    2.7990   -4.8481    0.0000 C   0  0  0  0  0  0  0  0  0  0  0  0
    2.7990   -3.3481    0.0000 N   0  0  0  0  0  0  0  0  0  0  0  0
    2.0490   -2.0490    0.0000 C   0  0  0  0  0  0  0  0  0  0  0  0
    3.9018   -2.2805    0.0000 C   0  0  0  0  0  0  0  0  0  0  0  0
    4.4444   -0.8821    0.0000 F   0  0  0  0  0  0  0  0  0  0  0  0
    4.8416   -3.4496    0.0000 C   0  0  0  0  0  0  0  0  0  0  0  0
    4.2990   -4.8481    0.0000 C   0  0  0  0  0  0  0  0  0  0  0  0
    0.7500   -1.2990    0.0000 C   0  0  0  0  0  0  0  0  0  0  0  0
    1.5000    0.0000    0.0000 C   0  0  0  0  0  0  0  0  0  0  0  0
    3.0000    0.0000    0.0000 Cl  0  0  0  0  0  0  0  0  0  0  0  0
    0.7500    1.2990    0.0000 C   0  0  0  0  0  0  0  0  0  0  0  0
   -0.7500    1.2990    0.0000 C   0  0  0  0  0  0  0  0  0  0  0  0
   -1.5000    0.0000    0.0000 C   0  0  0  0  0  0  0  0  0  0  0  0
   -0.7500   -1.2990    0.0000 C   0  0  0  0  0  0  0  0  0  0  0  0
   -2.0490   -2.0490    0.0000 O   0  0  0  0  0  0  0  0  0  0  0  0
   -2.7990   -3.3481    0.0000 C   0  0  0  0  0  0  0  0  0  0  0  0
   -2.7990   -4.8481    0.0000 C   0  0  0  0  0  0  0  0  0  0  0  0
   -2.0490   -6.1471    0.0000 C   0  0  0  0  0  0  0  0  0  0  0  0
   -0.7500   -6.8971    0.0000 C   0  0  0  0  0  0  0  0  0  0  0  0
   -1.5000   -8.1962    0.0000 C   0  0  0  0  0  0  0  0  0  0  0  0
   -0.7500   -9.4952    0.0000 C   0  0  0  0  0  0  0  0  0  0  0  0
    0.7500   -9.4952    0.0000 N   0  0  0  0  0  0  0  0  0  0  0  0
    1.5000   -8.1962    0.0000 C   0  0  0  0  0  0  0  0  0  0  0  0
    3.0000   -8.1962    0.0000 C   0  0  0  0  0  0  0  0  0  0  0  0
    3.7500   -9.4952    0.0000 C   0  0  0  0  0  0  0  0  0  0  0  0
    3.5538   -7.6228    0.0000 C   0  0  0  0  0  0  0  0  0  0  0  0
    0.7500   -6.8971    0.0000 C   0  0  0  0  0  0  0  0  0  0  0  0
    7.2990   -4.8481    0.0000 C   0  0  0  0  0  0  0  0  0  0  0  0
    8.7990   -4.8481    0.0000 C   0  0  0  0  0  0  0  0  0  0  0  0
    9.5490   -3.5490    0.0000 C   0  0  0  0  0  0  0  0  0  0  0  0
  1  2  2  0
  2  3  1  0
  3  4  2  0
  3  5  1  0
  5  6  1  0
  6  7  1  0
  7  8  1  6
  7  9  1  0
  9 10  1  0
 10 11  2  0
 11 12  1  0
 12 13  2  0
 12 14  1  0
 14 15  1  0
 15 16  2  0
 16 17  1  0
 17 18  2  0
 18 19  1  0
 18 20  1  0
 20 21  2  0
 17 22  1  0
 22 23  2  0
 23 24  1  0
 23 25  1  0
 25 26  2  0
 26 27  1  0
 27 28  2  0
 28 29  1  0
 29 30  1  0
 30 31  1  0
 31 32  1  0
 32 33  1  0
 33 34  2  0
 34 35  1  0
 35 36  2  0
 36 37  1  0
 37 38  1  0
 38 39  1  0
 38 40  1  0
 37 41  2  0
  9 42  1  0
 42 43  1  0
 43 44  1  1
 43  5  1  0
 21 10  1  0
 28 22  1  0
 41 33  1  0
 41 14  1  0
 21 15  1  0
M  END
>  <molecule_chembl_id>  (362) 
CHEMBL4855378

>  <canonical_smiles>  (362) 
C=CC(=O)N1C[C@H](C)N(c2nc(=O)n3c4nc(c(F)cc24)-c2c(Cl)cccc2OCCCc2ccnc(C(C)C)c2-3)C[C@H]1C

>  <pchembl_value_mean>  (362) 
8.64

>  <inchi>  (362) 
InChI=1S/C33H34ClFN6O3/c1-6-26(42)39-16-20(5)40(17-19(39)4)31-22-15-24(35)29-27-23(34)10-7-11-25(27)44-14-8-9-21-12-13-36-28(18(2)3)30(21)41(32(22)37-29)33(43)38-31/h6-7,10-13,15,18-20H,1,8-9,14,16-17H2,2-5H3/t19-,20+/m1/s1

$$$$

     RDKit          2D

 46 51  0  0  0  0  0  0  0  0999 V2000
    9.7500   -3.8971    0.0000 C   0  0  0  0  0  0  0  0  0  0  0  0
    8.2500   -3.8971    0.0000 C   0  0  0  0  0  0  0  0  0  0  0  0
    7.5000   -2.5981    0.0000 C   0  0  0  0  0  0  0  0  0  0  0  0
    8.2500   -1.2990    0.0000 O   0  0  0  0  0  0  0  0  0  0  0  0
    6.0000   -2.5981    0.0000 N   0  0  0  0  0  0  0  0  0  0  0  0
    5.2500   -3.8971    0.0000 C   0  0  0  0  0  0  0  0  0  0  0  0
    3.7500   -3.8971    0.0000 C   0  0  0  0  0  0  0  0  0  0  0  0
    3.0000   -2.5981    0.0000 N   0  0  0  0  0  0  0  0  0  0  0  0
    1.5000   -2.5981    0.0000 C   0  0  0  0  0  0  0  0  0  0  0  0
    0.7500   -3.8971    0.0000 C   0  0  0  0  0  0  0  0  0  0  0  0
   -0.7500   -3.8971    0.0000 C   0  0  0  0  0  0  0  0  0  0  0  0
   -1.5000   -5.1962    0.0000 C   0  0  0  0  0  0  0  0  0  0  0  0
   -0.7500   -6.4952    0.0000 O   0  0  0  0  0  0  0  0  0  0  0  0
   -3.0000   -5.1962    0.0000 N   0  0  0  0  0  0  0  0  0  0  0  0
   -3.7500   -6.4952    0.0000 C   0  0  0  0  0  0  0  0  0  0  0  0
   -5.2500   -6.4952    0.0000 C   0  0  0  0  0  0  0  0  0  0  0  0
   -3.0000   -7.7942    0.0000 C   0  0  0  0  0  0  0  0  0  0  0  0
   -3.7500   -9.0933    0.0000 N   0  0  0  0  0  0  0  0  0  0  0  0
   -5.1989   -9.4815    0.0000 C   0  0  0  0  0  0  0  0  0  0  0  0
   -4.8107  -10.9304    0.0000 C   0  0  0  0  0  0  0  0  0  0  0  0
   -4.4224  -12.3793    0.0000 C   0  0  0  0  0  0  0  0  0  0  0  0
   -6.2595  -11.3186    0.0000 O   0  0  0  0  0  0  0  0  0  0  0  0
   -3.3618  -10.5422    0.0000 C   0  0  0  0  0  0  0  0  0  0  0  0
   -1.5000   -2.5981    0.0000 N   0  0  0  0  0  0  0  0  0  0  0  0
   -0.7500   -1.2990    0.0000 C   0  0  0  0  0  0  0  0  0  0  0  0
    0.7500   -1.2990    0.0000 C   0  0  0  0  0  0  0  0  0  0  0  0
    1.5000    0.0000    0.0000 C   0  0  0  0  0  0  0  0  0  0  0  0
    0.7500    1.2990    0.0000 C   0  0  0  0  0  0  0  0  0  0  0  0
   -0.7500    1.2990    0.0000 N   0  0  0  0  0  0  0  0  0  0  0  0
   -1.5000    2.5981    0.0000 C   0  0  0  0  0  0  0  0  0  0  0  0
   -3.0000    2.5981    0.0000 C   0  0  0  0  0  0  0  0  0  0  0  0
   -3.7500    3.8971    0.0000 C   0  0  0  0  0  0  0  0  0  0  0  0
   -3.0000    5.1962    0.0000 C   0  0  0  0  0  0  0  0  0  0  0  0
   -1.5000    5.1962    0.0000 C   0  0  0  0  0  0  0  0  0  0  0  0
   -0.7500    6.4952    0.0000 C   0  0  0  0  0  0  0  0  0  0  0  0
    0.7500    6.4952    0.0000 C   0  0  0  0  0  0  0  0  0  0  0  0
    1.5000    5.1962    0.0000 C   0  0  0  0  0  0  0  0  0  0  0  0
    0.7500    3.8971    0.0000 C   0  0  0  0  0  0  0  0  0  0  0  0
    1.5000    2.5981    0.0000 C   0  0  0  0  0  0  0  0  0  0  0  0
   -0.7500    3.8971    0.0000 C   0  0  0  0  0  0  0  0  0  0  0  0
   -1.5000    0.0000    0.0000 C   0  0  0  0  0  0  0  0  0  0  0  0
    3.7500   -1.2990    0.0000 C   0  0  0  0  0  0  0  0  0  0  0  0
    5.2500   -1.2990    0.0000 C   0  0  0  0  0  0  0  0  0  0  0  0
    6.0000   -0.0000    0.0000 C   0  0  0  0  0  0  0  0  0  0  0  0
    5.2500    1.2990    0.0000 C   0  0  0  0  0  0  0  0  0  0  0  0
    4.5000    2.5981    0.0000 N   0  0  0  0  0  0  0  0  0  0  0  0
  1  2  2  0
  2  3  1  0
  3  4  2  0
  3  5  1  0
  5  6  1  0
  6  7  1  0
  7  8  1  0
  8  9  1  0
  9 10  2  0
 10 11  1  0
 11 12  1  0
 12 13  2  0
 12 14  1  0
 14 15  1  0
 15 16  1  1
 15 17  1  0
 17 18  1  0
 18 19  1  0
 19 20  1  0
 20 21  1  0
 20 22  1  0
 20 23  1  0
 11 24  2  0
 24 25  1  0
 25 26  2  0
 26 27  1  0
 27 28  1  0
 28 29  1  0
 29 30  1  0
 30 31  2  0
 31 32  1  0
 32 33  2  0
 33 34  1  0
 34 35  2  0
 35 36  1  0
 36 37  2  0
 37 38  1  0
 38 39  1  0
 38 40  2  0
 29 41  1  0
  8 42  1  0
 42 43  1  0
 43 44  1  6
 44 45  1  0
 45 46  3  0
 43  5  1  0
 26  9  1  0
 40 30  1  0
 23 18  1  0
 41 25  1  0
 40 34  1  0
M  END
>  <molecule_chembl_id>  (363) 
CHEMBL4850201

>  <canonical_smiles>  (363) 
C=CC(=O)N1CCN(c2cc(C(=O)N[C@H](C)CN3CC(C)(O)C3)nc3c2CCN(c2cccc4cccc(C)c24)C3)C[C@@H]1CC#N

>  <pchembl_value_mean>  (363) 
8.66

>  <inchi>  (363) 
InChI=1S/C36H43N7O3/c1-5-33(44)43-17-16-42(20-27(43)12-14-37)32-18-29(35(45)38-25(3)19-40-22-36(4,46)23-40)39-30-21-41(15-13-28(30)32)31-11-7-10-26-9-6-8-24(2)34(26)31/h5-11,18,25,27,46H,1,12-13,15-17,19-23H2,2-4H3,(H,38,45)/t25-,27+/m1/s1

$$$$

     RDKit          2D

 56 63  0  0  0  0  0  0  0  0999 V2000
    5.1731   -3.9415    0.0000 C   0  0  0  0  0  0  0  0  0  0  0  0
    3.8740   -4.6915    0.0000 C   0  0  0  0  0  0  0  0  0  0  0  0
    3.7172   -6.1833    0.0000 C   0  0  0  0  0  0  0  0  0  0  0  0
    2.2500   -6.4952    0.0000 N   0  0  0  0  0  0  0  0  0  0  0  0
    1.2463   -7.6099    0.0000 C   0  0  0  0  0  0  0  0  0  0  0  0
   -0.1240   -6.9998    0.0000 C   0  0  0  0  0  0  0  0  0  0  0  0
    0.0328   -5.5080    0.0000 C   0  0  0  0  0  0  0  0  0  0  0  0
    1.5000   -5.1962    0.0000 C   0  0  0  0  0  0  0  0  0  0  0  0
    0.7500   -3.8971    0.0000 C   0  0  0  0  0  0  0  0  0  0  0  0
    1.5000   -2.5981    0.0000 O   0  0  0  0  0  0  0  0  0  0  0  0
    0.7500   -1.2990    0.0000 C   0  0  0  0  0  0  0  0  0  0  0  0
    1.5000    0.0000    0.0000 N   0  0  0  0  0  0  0  0  0  0  0  0
    0.7500    1.2990    0.0000 C   0  0  0  0  0  0  0  0  0  0  0  0
    1.5000    2.5981    0.0000 N   0  0  0  0  0  0  0  0  0  0  0  0
    3.0000    2.5981    0.0000 C   0  0  0  0  0  0  0  0  0  0  0  0
    3.7500    3.8971    0.0000 C   0  0  0  0  0  0  0  0  0  0  0  0
    3.0000    5.1962    0.0000 N   0  0  0  0  0  0  0  0  0  0  0  0
    3.7500    6.4952    0.0000 C   0  0  0  0  0  0  0  0  0  0  0  0
    3.0000    7.7942    0.0000 O   0  0  0  0  0  0  0  0  0  0  0  0
    5.2500    6.4952    0.0000 C   0  0  0  0  0  0  0  0  0  0  0  0
    6.0000    7.7942    0.0000 C   0  0  0  0  0  0  0  0  0  0  0  0
    7.5000    7.7942    0.0000 C   0  0  0  0  0  0  0  0  0  0  0  0
    8.2500    6.4952    0.0000 N   0  0  0  0  0  0  0  0  0  0  0  0
    9.7500    6.4952    0.0000 C   0  0  0  0  0  0  0  0  0  0  0  0
   10.5000    7.7942    0.0000 C   0  0  0  0  0  0  0  0  0  0  0  0
    9.7500    9.0933    0.0000 C   0  0  0  0  0  0  0  0  0  0  0  0
    8.2500    9.0933    0.0000 C   0  0  0  0  0  0  0  0  0  0  0  0
    7.5000   10.3923    0.0000 C   0  0  0  0  0  0  0  0  0  0  0  0
    8.2500   11.6913    0.0000 N   0  0  0  0  0  0  0  0  0  0  0  0
    9.7500   11.6913    0.0000 C   0  0  0  0  0  0  0  0  0  0  0  0
   10.5000   10.3923    0.0000 C   0  0  0  0  0  0  0  0  0  0  0  0
    1.5000    5.1962    0.0000 C   0  0  0  0  0  0  0  0  0  0  0  0
    0.7500    3.8971    0.0000 C   0  0  0  0  0  0  0  0  0  0  0  0
   -0.7500    3.8971    0.0000 C   0  0  0  0  0  0  0  0  0  0  0  0
   -0.7500    1.2990    0.0000 C   0  0  0  0  0  0  0  0  0  0  0  0
   -1.5000    2.5981    0.0000 C   0  0  0  0  0  0  0  0  0  0  0  0
   -3.0000    2.5981    0.0000 C   0  0  0  0  0  0  0  0  0  0  0  0
   -3.5331    3.3054    0.0000 Cl  0  0  0  0  0  0  0  0  0  0  0  0
   -3.7500    1.2990    0.0000 C   0  0  0  0  0  0  0  0  0  0  0  0
   -5.2500    1.2990    0.0000 C   0  0  0  0  0  0  0  0  0  0  0  0
   -6.0000    0.0000    0.0000 N   0  0  0  0  0  0  0  0  0  0  0  0
   -7.5000    0.0000    0.0000 C   0  0  0  0  0  0  0  0  0  0  0  0
   -8.2500   -1.2990    0.0000 N   0  0  0  0  0  0  0  0  0  0  0  0
   -8.2500    1.2990    0.0000 C   0  0  0  0  0  0  0  0  0  0  0  0
   -7.5000    2.5981    0.0000 C   0  0  0  0  0  0  0  0  0  0  0  0
   -8.2500    3.8971    0.0000 C   0  0  0  0  0  0  0  0  0  0  0  0
   -6.0000    2.5981    0.0000 C   0  0  0  0  0  0  0  0  0  0  0  0
   -5.2500    3.8971    0.0000 C   0  0  0  0  0  0  0  0  0  0  0  0
   -4.5000    5.1962    0.0000 F   0  0  0  0  0  0  0  0  0  0  0  0
   -4.5426    3.3640    0.0000 F   0  0  0  0  0  0  0  0  0  0  0  0
   -6.5490    4.6471    0.0000 F   0  0  0  0  0  0  0  0  0  0  0  0
   -3.0000    0.0000    0.0000 C   0  0  0  0  0  0  0  0  0  0  0  0
   -3.7500   -1.2990    0.0000 F   0  0  0  0  0  0  0  0  0  0  0  0
   -1.5000    0.0000    0.0000 C   0  0  0  0  0  0  0  0  0  0  0  0
   -0.7500   -1.2990    0.0000 N   0  0  0  0  0  0  0  0  0  0  0  0
    2.5037   -4.0814    0.0000 C   0  0  0  0  0  0  0  0  0  0  0  0
  1  2  2  0
  2  3  1  0
  3  4  1  0
  4  5  1  0
  5  6  1  0
  6  7  1  0
  7  8  1  0
  8  9  1  6
  9 10  1  0
 10 11  1  0
 11 12  2  0
 12 13  1  0
 13 14  1  0
 14 15  1  0
 15 16  1  0
 16 17  1  0
 17 18  1  0
 18 19  2  0
 18 20  1  0
 20 21  2  0
 21 22  1  0
 22 23  2  0
 23 24  1  0
 24 25  2  0
 25 26  1  0
 26 27  2  0
 27 28  1  0
 28 29  1  0
 29 30  1  0
 30 31  1  0
 17 32  1  0
 32 33  1  0
 33 34  1  1
 13 35  2  0
 35 36  1  0
 36 37  2  0
 37 38  1  0
 37 39  1  0
 39 40  1  0
 40 41  2  0
 41 42  1  0
 42 43  1  0
 42 44  2  0
 44 45  1  0
 45 46  1  0
 45 47  2  0
 47 48  1  0
 48 49  1  0
 48 50  1  0
 48 51  1  0
 39 52  2  0
 52 53  1  0
 52 54  1  0
 54 55  2  0
  8 56  1  0
 56  2  1  0
  8  4  1  0
 55 11  1  0
 33 14  1  0
 54 35  1  0
 27 22  1  0
 47 40  1  0
 31 26  1  0
M  END
>  <molecule_chembl_id>  (364) 
CHEMBL5413564

>  <canonical_smiles>  (364) 
C=C1CN2CCC[C@@]2(COc2nc(N3CCN(C(=O)/C=C/c4nccc5c4CNCC5)C[C@@H]3C)c3cc(Cl)c(-c4nc(N)cc(C)c4C(F)(F)F)c(F)c3n2)C1

>  <pchembl_value_mean>  (364) 
8.68

>  <inchi>  (364) 
InChI=1S/C40H42ClF4N9O2/c1-22-17-39(9-4-12-53(39)19-22)21-56-38-50-35-26(16-28(41)32(34(35)42)36-33(40(43,44)45)23(2)15-30(46)49-36)37(51-38)54-14-13-52(20-24(54)3)31(55)6-5-29-27-18-47-10-7-25(27)8-11-48-29/h5-6,8,11,15-16,24,47H,1,4,7,9-10,12-14,17-21H2,2-3H3,(H2,46,49)/b6-5+/t24-,39-/m0/s1

$$$$

     RDKit          2D

 47 54  0  0  0  0  0  0  0  0999 V2000
   -2.6833    2.3536    0.0000 N   0  0  0  0  0  0  0  0  0  0  0  0
   -4.1099    1.8901    0.0000 C   0  0  0  0  0  0  0  0  0  0  0  0
   -5.5365    1.4266    0.0000 C   0  0  0  0  0  0  0  0  0  0  0  0
   -6.7500    2.3083    0.0000 C   0  0  0  0  0  0  0  0  0  0  0  0
   -6.7500    3.8083    0.0000 N   0  0  0  0  0  0  0  0  0  0  0  0
   -7.9635    1.4266    0.0000 S   0  0  0  0  0  0  0  0  0  0  0  0
   -7.5000    0.0000    0.0000 C   0  0  0  0  0  0  0  0  0  0  0  0
   -8.2500   -1.2990    0.0000 C   0  0  0  0  0  0  0  0  0  0  0  0
   -9.7500   -1.2990    0.0000 F   0  0  0  0  0  0  0  0  0  0  0  0
   -7.5000   -2.5981    0.0000 C   0  0  0  0  0  0  0  0  0  0  0  0
   -6.0000   -2.5981    0.0000 C   0  0  0  0  0  0  0  0  0  0  0  0
   -5.2500   -1.2990    0.0000 C   0  0  0  0  0  0  0  0  0  0  0  0
   -3.7500   -1.2990    0.0000 C   0  0  0  0  0  0  0  0  0  0  0  0
   -3.0000   -2.5981    0.0000 C   0  0  0  0  0  0  0  0  0  0  0  0
   -3.7500   -3.8971    0.0000 C   0  0  0  0  0  0  0  0  0  0  0  0
   -4.5000   -5.1962    0.0000 F   0  0  0  0  0  0  0  0  0  0  0  0
   -2.4510   -4.6471    0.0000 F   0  0  0  0  0  0  0  0  0  0  0  0
   -5.0490   -3.1471    0.0000 F   0  0  0  0  0  0  0  0  0  0  0  0
   -1.5000   -2.5981    0.0000 C   0  0  0  0  0  0  0  0  0  0  0  0
   -0.7500   -1.2990    0.0000 C   0  0  0  0  0  0  0  0  0  0  0  0
    0.7500   -1.2990    0.0000 C   0  0  0  0  0  0  0  0  0  0  0  0
    1.5000   -2.5981    0.0000 N   0  0  0  0  0  0  0  0  0  0  0  0
    3.0000   -2.5981    0.0000 C   0  0  0  0  0  0  0  0  0  0  0  0
    3.7500   -3.8971    0.0000 C   0  0  0  0  0  0  0  0  0  0  0  0
    4.0619   -5.3643    0.0000 C   0  0  0  0  0  0  0  0  0  0  0  0
    2.7628   -6.1143    0.0000 C   0  0  0  0  0  0  0  0  0  0  0  0
    1.6481   -5.1106    0.0000 C   0  0  0  0  0  0  0  0  0  0  0  0
    0.7500   -3.8971    0.0000 C   0  0  0  0  0  0  0  0  0  0  0  0
    2.2582   -3.7403    0.0000 N   0  0  0  0  0  0  0  0  0  0  0  0
    1.5000    0.0000    0.0000 N   0  0  0  0  0  0  0  0  0  0  0  0
    0.7500    1.2990    0.0000 C   0  0  0  0  0  0  0  0  0  0  0  0
    1.5000    2.5981    0.0000 O   0  0  0  0  0  0  0  0  0  0  0  0
    3.0000    2.5981    0.0000 C   0  0  0  0  0  0  0  0  0  0  0  0
    3.7500    3.8971    0.0000 C   0  0  0  0  0  0  0  0  0  0  0  0
    2.2828    4.2090    0.0000 C   0  0  0  0  0  0  0  0  0  0  0  0
    2.1260    5.7008    0.0000 C   0  0  0  0  0  0  0  0  0  0  0  0
    3.4963    6.3109    0.0000 C   0  0  0  0  0  0  0  0  0  0  0  0
    4.5000    5.1962    0.0000 N   0  0  0  0  0  0  0  0  0  0  0  0
    5.9672    4.8843    0.0000 C   0  0  0  0  0  0  0  0  0  0  0  0
    6.1240    3.3925    0.0000 C   0  0  0  0  0  0  0  0  0  0  0  0
    7.4231    2.6425    0.0000 F   0  0  0  0  0  0  0  0  0  0  0  0
    4.7537    2.7824    0.0000 C   0  0  0  0  0  0  0  0  0  0  0  0
   -0.7500    1.2990    0.0000 N   0  0  0  0  0  0  0  0  0  0  0  0
   -1.5000    0.0000    0.0000 C   0  0  0  0  0  0  0  0  0  0  0  0
   -3.0000    0.0000    0.0000 C   0  0  0  0  0  0  0  0  0  0  0  0
   -3.4134    1.4419    0.0000 F   0  0  0  0  0  0  0  0  0  0  0  0
   -6.0000    0.0000    0.0000 C   0  0  0  0  0  0  0  0  0  0  0  0
  1  2  3  0
  2  3  1  0
  3  4  2  0
  4  5  1  0
  4  6  1  0
  6  7  1  0
  7  8  2  0
  8  9  1  0
  8 10  1  0
 10 11  2  0
 11 12  1  0
 12 13  1  0
 13 14  2  0
 14 15  1  0
 15 16  1  0
 15 17  1  0
 15 18  1  0
 14 19  1  0
 19 20  2  0
 20 21  1  0
 21 22  1  0
 22 23  1  0
 23 24  1  0
 24 25  1  0
 25 26  1  0
 26 27  1  0
 27 28  1  0
 27 29  1  0
 21 30  2  0
 30 31  1  0
 31 32  1  0
 32 33  1  0
 34 33  1  1
 34 35  1  0
 35 36  1  0
 36 37  1  0
 37 38  1  0
 38 39  1  0
 39 40  1  0
 40 41  1  6
 40 42  1  0
 31 43  2  0
 43 44  1  0
 44 45  2  0
 45 46  1  0
 12 47  2  0
 47  3  1  0
 47  7  1  0
 45 13  1  0
 44 20  1  0
 28 22  1  0
 38 34  1  0
 29 24  1  0
 42 34  1  0
M  END
>  <molecule_chembl_id>  (365) 
CHEMBL5408369

>  <canonical_smiles>  (365) 
N#Cc1c(N)sc2c(F)ccc(-c3c(C(F)(F)F)cc4c(N5CC6CCC(C5)N6)nc(OC[C@@]56CCCN5C[C@H](F)C6)nc4c3F)c12

>  <pchembl_value_mean>  (365) 
8.72

>  <inchi>  (365) 
InChI=1S/C32H29F6N7OS/c33-15-9-31(6-1-7-45(31)11-15)14-46-30-42-26-19(29(43-30)44-12-16-2-3-17(13-44)41-16)8-21(32(36,37)38)24(25(26)35)18-4-5-22(34)27-23(18)20(10-39)28(40)47-27/h4-5,8,15-17,41H,1-3,6-7,9,11-14,40H2/t15-,16?,17?,31+/m1/s1

$$$$

     RDKit          2D

 44 49  0  0  0  0  0  0  0  0999 V2000
   13.2990   -7.4462    0.0000 C   0  0  0  0  0  0  0  0  0  0  0  0
   11.7990   -7.4462    0.0000 C   0  0  0  0  0  0  0  0  0  0  0  0
   11.0490   -6.1471    0.0000 C   0  0  0  0  0  0  0  0  0  0  0  0
   11.7990   -4.8481    0.0000 O   0  0  0  0  0  0  0  0  0  0  0  0
    9.5490   -6.1471    0.0000 N   0  0  0  0  0  0  0  0  0  0  0  0
    8.7990   -7.4462    0.0000 C   0  0  0  0  0  0  0  0  0  0  0  0
    7.2990   -7.4462    0.0000 C   0  0  0  0  0  0  0  0  0  0  0  0
    6.5490   -8.7452    0.0000 C   0  0  0  0  0  0  0  0  0  0  0  0
    6.5490   -6.1471    0.0000 N   0  0  0  0  0  0  0  0  0  0  0  0
    5.0490   -6.1471    0.0000 C   0  0  0  0  0  0  0  0  0  0  0  0
    4.2990   -7.4462    0.0000 N   0  0  0  0  0  0  0  0  0  0  0  0
    2.7990   -7.4462    0.0000 C   0  0  0  0  0  0  0  0  0  0  0  0
    2.3857   -8.8881    0.0000 O   0  0  0  0  0  0  0  0  0  0  0  0
    2.0490   -6.1471    0.0000 N   0  0  0  0  0  0  0  0  0  0  0  0
    2.7990   -4.8481    0.0000 C   0  0  0  0  0  0  0  0  0  0  0  0
    2.7990   -3.3481    0.0000 N   0  0  0  0  0  0  0  0  0  0  0  0
    2.0490   -2.0490    0.0000 C   0  0  0  0  0  0  0  0  0  0  0  0
    3.9018   -2.2805    0.0000 C   0  0  0  0  0  0  0  0  0  0  0  0
    4.4444   -0.8821    0.0000 F   0  0  0  0  0  0  0  0  0  0  0  0
    4.8416   -3.4496    0.0000 C   0  0  0  0  0  0  0  0  0  0  0  0
    4.2990   -4.8481    0.0000 C   0  0  0  0  0  0  0  0  0  0  0  0
    0.7500   -1.2990    0.0000 C   0  0  0  0  0  0  0  0  0  0  0  0
    1.5000    0.0000    0.0000 C   0  0  0  0  0  0  0  0  0  0  0  0
    3.0000    0.0000    0.0000 F   0  0  0  0  0  0  0  0  0  0  0  0
    0.7500    1.2990    0.0000 C   0  0  0  0  0  0  0  0  0  0  0  0
   -0.7500    1.2990    0.0000 C   0  0  0  0  0  0  0  0  0  0  0  0
   -1.5000    0.0000    0.0000 C   0  0  0  0  0  0  0  0  0  0  0  0
   -0.7500   -1.2990    0.0000 C   0  0  0  0  0  0  0  0  0  0  0  0
   -2.0490   -2.0490    0.0000 O   0  0  0  0  0  0  0  0  0  0  0  0
   -2.7990   -3.3481    0.0000 C   0  0  0  0  0  0  0  0  0  0  0  0
   -2.7990   -4.8481    0.0000 C   0  0  0  0  0  0  0  0  0  0  0  0
   -2.0490   -6.1471    0.0000 C   0  0  0  0  0  0  0  0  0  0  0  0
   -0.7500   -6.8971    0.0000 C   0  0  0  0  0  0  0  0  0  0  0  0
   -1.5000   -8.1962    0.0000 C   0  0  0  0  0  0  0  0  0  0  0  0
   -0.7500   -9.4952    0.0000 C   0  0  0  0  0  0  0  0  0  0  0  0
    0.7500   -9.4952    0.0000 N   0  0  0  0  0  0  0  0  0  0  0  0
    1.5000   -8.1962    0.0000 C   0  0  0  0  0  0  0  0  0  0  0  0
    3.0000   -8.1962    0.0000 C   0  0  0  0  0  0  0  0  0  0  0  0
    3.7500   -9.4952    0.0000 C   0  0  0  0  0  0  0  0  0  0  0  0
    3.5538   -7.6228    0.0000 C   0  0  0  0  0  0  0  0  0  0  0  0
    0.7500   -6.8971    0.0000 C   0  0  0  0  0  0  0  0  0  0  0  0
    7.2990   -4.8481    0.0000 C   0  0  0  0  0  0  0  0  0  0  0  0
    8.7990   -4.8481    0.0000 C   0  0  0  0  0  0  0  0  0  0  0  0
    9.5490   -3.5490    0.0000 C   0  0  0  0  0  0  0  0  0  0  0  0
  1  2  2  0
  2  3  1  0
  3  4  2  0
  3  5  1  0
  5  6  1  0
  6  7  1  0
  7  8  1  6
  7  9  1  0
  9 10  1  0
 10 11  2  0
 11 12  1  0
 12 13  2  0
 12 14  1  0
 14 15  1  0
 15 16  2  0
 16 17  1  0
 17 18  2  0
 18 19  1  0
 18 20  1  0
 20 21  2  0
 17 22  1  0
 22 23  2  0
 23 24  1  0
 23 25  1  0
 25 26  2  0
 26 27  1  0
 27 28  2  0
 28 29  1  0
 29 30  1  0
 30 31  1  0
 31 32  1  0
 32 33  1  0
 33 34  2  0
 34 35  1  0
 35 36  2  0
 36 37  1  0
 37 38  1  0
 38 39  1  0
 38 40  1  0
 37 41  2  0
  9 42  1  0
 42 43  1  0
 43 44  1  1
 43  5  1  0
 21 10  1  0
 28 22  1  0
 41 33  1  0
 41 14  1  0
 21 15  1  0
M  END
>  <molecule_chembl_id>  (366) 
CHEMBL4864188

>  <canonical_smiles>  (366) 
C=CC(=O)N1C[C@H](C)N(c2nc(=O)n3c4nc(c(F)cc24)-c2c(F)cccc2OCCCc2ccnc(C(C)C)c2-3)C[C@H]1C

>  <pchembl_value_mean>  (366) 
8.77

>  <inchi>  (366) 
InChI=1S/C33H34F2N6O3/c1-6-26(42)39-16-20(5)40(17-19(39)4)31-22-15-24(35)29-27-23(34)10-7-11-25(27)44-14-8-9-21-12-13-36-28(18(2)3)30(21)41(32(22)37-29)33(43)38-31/h6-7,10-13,15,18-20H,1,8-9,14,16-17H2,2-5H3/t19-,20+/m1/s1

$$$$

     RDKit          2D

 57 65  0  0  0  0  0  0  0  0999 V2000
   -9.2579   -4.1213    0.0000 C   0  0  0  0  0  0  0  0  0  0  0  0
   -8.8157   -2.6879    0.0000 C   0  0  0  0  0  0  0  0  0  0  0  0
   -9.7155   -1.4877    0.0000 C   0  0  0  0  0  0  0  0  0  0  0  0
   -8.8520   -0.2611    0.0000 N   0  0  0  0  0  0  0  0  0  0  0  0
   -8.8745    1.2387    0.0000 C   0  0  0  0  0  0  0  0  0  0  0  0
   -7.4550    1.7235    0.0000 C   0  0  0  0  0  0  0  0  0  0  0  0
   -6.5552    0.5233    0.0000 C   0  0  0  0  0  0  0  0  0  0  0  0
   -7.4187   -0.7033    0.0000 C   0  0  0  0  0  0  0  0  0  0  0  0
   -5.9853   -1.1454    0.0000 C   0  0  0  0  0  0  0  0  0  0  0  0
   -5.6515   -2.6078    0.0000 O   0  0  0  0  0  0  0  0  0  0  0  0
   -4.2182   -3.0499    0.0000 C   0  0  0  0  0  0  0  0  0  0  0  0
   -3.1186   -2.0297    0.0000 N   0  0  0  0  0  0  0  0  0  0  0  0
   -1.6852   -2.4718    0.0000 C   0  0  0  0  0  0  0  0  0  0  0  0
   -1.3515   -3.9342    0.0000 C   0  0  0  0  0  0  0  0  0  0  0  0
   -0.0000   -4.5850    0.0000 C   0  0  0  0  0  0  0  0  0  0  0  0
    0.3416   -6.0505    0.0000 C   0  0  0  0  0  0  0  0  0  0  0  0
    1.1205   -6.4721    0.0000 Cl  0  0  0  0  0  0  0  0  0  0  0  0
   -0.8312   -6.9857    0.0000 C   0  0  0  0  0  0  0  0  0  0  0  0
   -0.6076   -8.4689    0.0000 C   0  0  0  0  0  0  0  0  0  0  0  0
   -1.7803   -9.4042    0.0000 N   0  0  0  0  0  0  0  0  0  0  0  0
   -1.5568  -10.8874    0.0000 C   0  0  0  0  0  0  0  0  0  0  0  0
   -2.7295  -11.8227    0.0000 N   0  0  0  0  0  0  0  0  0  0  0  0
   -0.1605  -11.4354    0.0000 C   0  0  0  0  0  0  0  0  0  0  0  0
    1.0123  -10.5002    0.0000 C   0  0  0  0  0  0  0  0  0  0  0  0
    2.4086  -11.0482    0.0000 C   0  0  0  0  0  0  0  0  0  0  0  0
    0.7887   -9.0170    0.0000 C   0  0  0  0  0  0  0  0  0  0  0  0
    1.9615   -8.0817    0.0000 C   0  0  0  0  0  0  0  0  0  0  0  0
    3.1342   -7.1465    0.0000 F   0  0  0  0  0  0  0  0  0  0  0  0
    1.3289   -7.4617    0.0000 F   0  0  0  0  0  0  0  0  0  0  0  0
    2.8967   -9.2545    0.0000 F   0  0  0  0  0  0  0  0  0  0  0  0
   -2.2275   -6.4377    0.0000 C   0  0  0  0  0  0  0  0  0  0  0  0
   -3.4002   -7.3729    0.0000 F   0  0  0  0  0  0  0  0  0  0  0  0
   -2.4510   -4.9544    0.0000 C   0  0  0  0  0  0  0  0  0  0  0  0
   -3.8844   -4.5123    0.0000 N   0  0  0  0  0  0  0  0  0  0  0  0
    1.3515   -3.9342    0.0000 O   0  0  0  0  0  0  0  0  0  0  0  0
    1.6852   -2.4718    0.0000 C   0  0  0  0  0  0  0  0  0  0  0  0
    0.7500   -1.2990    0.0000 C   0  0  0  0  0  0  0  0  0  0  0  0
    1.5000    0.0000    0.0000 C   0  0  0  0  0  0  0  0  0  0  0  0
    0.7500    1.2990    0.0000 N   0  0  0  0  0  0  0  0  0  0  0  0
    1.5000    2.5981    0.0000 C   0  0  0  0  0  0  0  0  0  0  0  0
    0.7500    3.8971    0.0000 O   0  0  0  0  0  0  0  0  0  0  0  0
    3.0000    2.5981    0.0000 C   0  0  0  0  0  0  0  0  0  0  0  0
    3.7500    3.8971    0.0000 C   0  0  0  0  0  0  0  0  0  0  0  0
    5.2500    3.8971    0.0000 C   0  0  0  0  0  0  0  0  0  0  0  0
    6.0000    2.5981    0.0000 N   0  0  0  0  0  0  0  0  0  0  0  0
    7.5000    2.5981    0.0000 C   0  0  0  0  0  0  0  0  0  0  0  0
    8.2500    3.8971    0.0000 C   0  0  0  0  0  0  0  0  0  0  0  0
    7.5000    5.1962    0.0000 C   0  0  0  0  0  0  0  0  0  0  0  0
    6.0000    5.1962    0.0000 C   0  0  0  0  0  0  0  0  0  0  0  0
    5.2500    6.4952    0.0000 C   0  0  0  0  0  0  0  0  0  0  0  0
    6.0000    7.7942    0.0000 N   0  0  0  0  0  0  0  0  0  0  0  0
    7.5000    7.7942    0.0000 C   0  0  0  0  0  0  0  0  0  0  0  0
    8.2500    6.4952    0.0000 C   0  0  0  0  0  0  0  0  0  0  0  0
   -0.7500    1.2990    0.0000 C   0  0  0  0  0  0  0  0  0  0  0  0
   -1.5000    0.0000    0.0000 C   0  0  0  0  0  0  0  0  0  0  0  0
   -0.7500   -1.2990    0.0000 N   0  0  0  0  0  0  0  0  0  0  0  0
   -7.3962   -2.2031    0.0000 C   0  0  0  0  0  0  0  0  0  0  0  0
  1  2  2  0
  2  3  1  0
  3  4  1  0
  4  5  1  0
  5  6  1  0
  6  7  1  0
  7  8  1  0
  8  9  1  6
  9 10  1  0
 10 11  1  0
 11 12  2  0
 12 13  1  0
 13 14  2  0
 14 15  1  0
 15 16  2  0
 16 17  1  0
 16 18  1  0
 18 19  1  0
 19 20  2  0
 20 21  1  0
 21 22  1  0
 21 23  2  0
 23 24  1  0
 24 25  1  0
 24 26  2  0
 26 27  1  0
 27 28  1  0
 27 29  1  0
 27 30  1  0
 18 31  2  0
 31 32  1  0
 31 33  1  0
 33 34  2  0
 15 35  1  0
 35 36  1  0
 37 36  1  1
 37 38  1  0
 38 39  1  0
 39 40  1  0
 40 41  2  0
 40 42  1  0
 42 43  2  0
 43 44  1  0
 44 45  2  0
 45 46  1  0
 46 47  2  0
 47 48  1  0
 48 49  2  0
 49 50  1  0
 50 51  1  0
 51 52  1  0
 52 53  1  0
 39 54  1  0
 54 55  1  0
 55 56  1  0
  8 57  1  0
 57  2  1  0
  8  4  1  0
 34 11  1  0
 56 37  1  0
 56 13  1  0
 33 14  1  0
 49 44  1  0
 26 19  1  0
 53 48  1  0
M  END
>  <molecule_chembl_id>  (367) 
CHEMBL5415578

>  <canonical_smiles>  (367) 
C=C1CN2CCC[C@@]2(COc2nc3c4c(c(Cl)c(-c5nc(N)cc(C)c5C(F)(F)F)c(F)c4n2)OC[C@@H]2CN(C(=O)/C=C/c4nccc5c4CNCC5)CCN32)C1

>  <pchembl_value_mean>  (367) 
8.82

>  <inchi>  (367) 
InChI=1S/C40H40ClF4N9O3/c1-21-15-39(8-3-11-53(39)17-21)20-57-38-50-35-30-36(32(41)29(33(35)42)34-31(40(43,44)45)22(2)14-27(46)49-34)56-19-24-18-52(12-13-54(24)37(30)51-38)28(55)5-4-26-25-16-47-9-6-23(25)7-10-48-26/h4-5,7,10,14,24,47H,1,3,6,8-9,11-13,15-20H2,2H3,(H2,46,49)/b5-4+/t24-,39-/m0/s1

$$$$

     RDKit          2D

 42 49  0  0  0  0  0  0  0  0999 V2000
   -1.5000   -5.1962    0.0000 O   0  0  0  0  0  0  0  0  0  0  0  0
   -0.7500   -3.8971    0.0000 C   0  0  0  0  0  0  0  0  0  0  0  0
    0.7500   -3.8971    0.0000 C   0  0  0  0  0  0  0  0  0  0  0  0
    1.5000   -2.5981    0.0000 C   0  0  0  0  0  0  0  0  0  0  0  0
    3.0000   -2.5981    0.0000 N   0  0  0  0  0  0  0  0  0  0  0  0
    3.7500   -1.2990    0.0000 C   0  0  0  0  0  0  0  0  0  0  0  0
    5.2500   -1.2990    0.0000 C   0  0  0  0  0  0  0  0  0  0  0  0
    6.0000   -2.5981    0.0000 C   0  0  0  0  0  0  0  0  0  0  0  0
    5.2500   -3.8971    0.0000 C   0  0  0  0  0  0  0  0  0  0  0  0
    6.0000   -5.1962    0.0000 N   0  0  0  0  0  0  0  0  0  0  0  0
    7.5000   -5.1962    0.0000 C   0  0  0  0  0  0  0  0  0  0  0  0
    8.2500   -6.4952    0.0000 O   0  0  0  0  0  0  0  0  0  0  0  0
    7.5000   -7.7942    0.0000 C   0  0  0  0  0  0  0  0  0  0  0  0
    8.2500   -9.0933    0.0000 C   0  0  0  0  0  0  0  0  0  0  0  0
    9.6595   -8.5802    0.0000 C   0  0  0  0  0  0  0  0  0  0  0  0
   10.8086   -9.5444    0.0000 N   0  0  0  0  0  0  0  0  0  0  0  0
   12.2640   -9.1815    0.0000 C   0  0  0  0  0  0  0  0  0  0  0  0
   13.0589  -10.4536    0.0000 C   0  0  0  0  0  0  0  0  0  0  0  0
   12.0947  -11.6027    0.0000 C   0  0  0  0  0  0  0  0  0  0  0  0
   12.4576  -13.0581    0.0000 F   0  0  0  0  0  0  0  0  0  0  0  0
   10.7040  -11.0408    0.0000 C   0  0  0  0  0  0  0  0  0  0  0  0
    8.5105  -10.5705    0.0000 C   0  0  0  0  0  0  0  0  0  0  0  0
    7.1009  -10.0574    0.0000 C   0  0  0  0  0  0  0  0  0  0  0  0
    8.2500   -3.8971    0.0000 N   0  0  0  0  0  0  0  0  0  0  0  0
    7.5000   -2.5981    0.0000 C   0  0  0  0  0  0  0  0  0  0  0  0
    8.2500   -1.2990    0.0000 N   0  0  0  0  0  0  0  0  0  0  0  0
    9.7500   -1.2990    0.0000 C   0  0  0  0  0  0  0  0  0  0  0  0
   10.5000    0.0000    0.0000 C   0  0  0  0  0  0  0  0  0  0  0  0
   10.8119    1.4672    0.0000 C   0  0  0  0  0  0  0  0  0  0  0  0
    9.5128    2.2172    0.0000 C   0  0  0  0  0  0  0  0  0  0  0  0
    8.3981    1.2135    0.0000 C   0  0  0  0  0  0  0  0  0  0  0  0
    7.5000    0.0000    0.0000 C   0  0  0  0  0  0  0  0  0  0  0  0
    9.0082   -0.1568    0.0000 N   0  0  0  0  0  0  0  0  0  0  0  0
    3.7500   -3.8971    0.0000 C   0  0  0  0  0  0  0  0  0  0  0  0
    0.7500   -1.2990    0.0000 C   0  0  0  0  0  0  0  0  0  0  0  0
    1.5000    0.0000    0.0000 C   0  0  0  0  0  0  0  0  0  0  0  0
    3.0000    0.0000    0.0000 Br  0  0  0  0  0  0  0  0  0  0  0  0
    0.7500    1.2990    0.0000 C   0  0  0  0  0  0  0  0  0  0  0  0
   -0.7500    1.2990    0.0000 C   0  0  0  0  0  0  0  0  0  0  0  0
   -1.5000    0.0000    0.0000 C   0  0  0  0  0  0  0  0  0  0  0  0
   -0.7500   -1.2990    0.0000 C   0  0  0  0  0  0  0  0  0  0  0  0
   -1.5000   -2.5981    0.0000 C   0  0  0  0  0  0  0  0  0  0  0  0
  1  2  1  0
  2  3  2  0
  3  4  1  0
  4  5  1  0
  5  6  1  0
  6  7  1  0
  7  8  1  0
  8  9  2  0
  9 10  1  0
 10 11  2  0
 11 12  1  0
 12 13  1  0
 13 14  1  0
 14 15  1  0
 15 16  1  0
 16 17  1  0
 17 18  1  0
 18 19  1  0
 19 20  1  1
 19 21  1  0
 14 22  1  0
 22 23  1  0
 11 24  1  0
 24 25  2  0
 25 26  1  0
 26 27  1  0
 27 28  1  0
 28 29  1  0
 29 30  1  0
 30 31  1  0
 31 32  1  0
 31 33  1  0
  9 34  1  0
  4 35  2  0
 35 36  1  0
 36 37  1  0
 36 38  2  0
 38 39  1  0
 39 40  2  0
 40 41  1  0
 41 42  2  0
 42  2  1  0
 34  5  1  0
 41 35  1  0
 25  8  1  0
 32 26  1  0
 23 14  1  0
 33 28  1  0
 21 16  1  0
M  END
>  <molecule_chembl_id>  (368) 
CHEMBL4875572

>  <canonical_smiles>  (368) 
Oc1cc(N2CCc3c(nc(OCC4(CN5CC[C@@H](F)C5)CC4)nc3N3CC4CCC(C3)N4)C2)c2c(Br)cccc2c1

>  <pchembl_value_mean>  (368) 
8.82

>  <inchi>  (368) 
InChI=1S/C32H38BrFN6O2/c33-26-3-1-2-20-12-24(41)13-28(29(20)26)39-11-7-25-27(17-39)36-31(37-30(25)40-15-22-4-5-23(16-40)35-22)42-19-32(8-9-32)18-38-10-6-21(34)14-38/h1-3,12-13,21-23,35,41H,4-11,14-19H2/t21-,22?,23?/m1/s1

$$$$

     RDKit          2D

 46 51  0  0  0  0  0  0  0  0999 V2000
  -13.2990   -0.7500    0.0000 C   0  0  0  0  0  0  0  0  0  0  0  0
  -11.7990   -0.7500    0.0000 C   0  0  0  0  0  0  0  0  0  0  0  0
  -11.0490   -2.0490    0.0000 C   0  0  0  0  0  0  0  0  0  0  0  0
  -11.7990   -3.3481    0.0000 O   0  0  0  0  0  0  0  0  0  0  0  0
   -9.5490   -2.0490    0.0000 N   0  0  0  0  0  0  0  0  0  0  0  0
   -8.7990   -0.7500    0.0000 C   0  0  0  0  0  0  0  0  0  0  0  0
   -7.2990   -0.7500    0.0000 C   0  0  0  0  0  0  0  0  0  0  0  0
   -6.5490    0.5490    0.0000 C   0  0  0  0  0  0  0  0  0  0  0  0
   -6.5490   -2.0490    0.0000 N   0  0  0  0  0  0  0  0  0  0  0  0
   -5.0490   -2.0490    0.0000 C   0  0  0  0  0  0  0  0  0  0  0  0
   -4.2990   -0.7500    0.0000 N   0  0  0  0  0  0  0  0  0  0  0  0
   -2.7990   -0.7500    0.0000 C   0  0  0  0  0  0  0  0  0  0  0  0
   -2.3857    0.6919    0.0000 O   0  0  0  0  0  0  0  0  0  0  0  0
   -2.0490   -2.0490    0.0000 N   0  0  0  0  0  0  0  0  0  0  0  0
   -2.7990   -3.3481    0.0000 C   0  0  0  0  0  0  0  0  0  0  0  0
   -2.7990   -4.8481    0.0000 N   0  0  0  0  0  0  0  0  0  0  0  0
   -2.0490   -6.1471    0.0000 C   0  0  0  0  0  0  0  0  0  0  0  0
   -3.9018   -5.9156    0.0000 C   0  0  0  0  0  0  0  0  0  0  0  0
   -4.4444   -7.3140    0.0000 F   0  0  0  0  0  0  0  0  0  0  0  0
   -4.8416   -4.7465    0.0000 C   0  0  0  0  0  0  0  0  0  0  0  0
   -4.2990   -3.3481    0.0000 C   0  0  0  0  0  0  0  0  0  0  0  0
   -0.7500   -6.8971    0.0000 C   0  0  0  0  0  0  0  0  0  0  0  0
    0.7500   -6.8971    0.0000 C   0  0  0  0  0  0  0  0  0  0  0  0
    1.5000   -8.1962    0.0000 C   0  0  0  0  0  0  0  0  0  0  0  0
    0.7500   -9.4952    0.0000 C   0  0  0  0  0  0  0  0  0  0  0  0
   -0.7500   -9.4952    0.0000 C   0  0  0  0  0  0  0  0  0  0  0  0
   -1.5000  -10.7942    0.0000 F   0  0  0  0  0  0  0  0  0  0  0  0
   -1.5000   -8.1962    0.0000 C   0  0  0  0  0  0  0  0  0  0  0  0
   -3.0000   -8.1962    0.0000 F   0  0  0  0  0  0  0  0  0  0  0  0
    2.0490   -6.1471    0.0000 O   0  0  0  0  0  0  0  0  0  0  0  0
    2.7990   -4.8481    0.0000 C   0  0  0  0  0  0  0  0  0  0  0  0
    2.7990   -3.3481    0.0000 C   0  0  0  0  0  0  0  0  0  0  0  0
    2.0490   -2.0490    0.0000 C   0  0  0  0  0  0  0  0  0  0  0  0
    3.1097   -0.9884    0.0000 C   0  0  0  0  0  0  0  0  0  0  0  0
    0.7500   -1.2990    0.0000 C   0  0  0  0  0  0  0  0  0  0  0  0
    1.5000    0.0000    0.0000 C   0  0  0  0  0  0  0  0  0  0  0  0
    0.7500    1.2990    0.0000 C   0  0  0  0  0  0  0  0  0  0  0  0
   -0.7500    1.2990    0.0000 N   0  0  0  0  0  0  0  0  0  0  0  0
   -1.5000    0.0000    0.0000 C   0  0  0  0  0  0  0  0  0  0  0  0
   -3.0000    0.0000    0.0000 C   0  0  0  0  0  0  0  0  0  0  0  0
   -3.7500    1.2990    0.0000 C   0  0  0  0  0  0  0  0  0  0  0  0
   -3.5538   -0.5734    0.0000 C   0  0  0  0  0  0  0  0  0  0  0  0
   -0.7500   -1.2990    0.0000 C   0  0  0  0  0  0  0  0  0  0  0  0
   -7.2990   -3.3481    0.0000 C   0  0  0  0  0  0  0  0  0  0  0  0
   -8.7990   -3.3481    0.0000 C   0  0  0  0  0  0  0  0  0  0  0  0
   -9.5490   -4.6471    0.0000 C   0  0  0  0  0  0  0  0  0  0  0  0
  1  2  2  0
  2  3  1  0
  3  4  2  0
  3  5  1  0
  5  6  1  0
  6  7  1  0
  7  8  1  6
  7  9  1  0
  9 10  1  0
 10 11  2  0
 11 12  1  0
 12 13  2  0
 12 14  1  0
 14 15  1  0
 15 16  2  0
 16 17  1  0
 17 18  2  0
 18 19  1  0
 18 20  1  0
 20 21  2  0
 17 22  1  0
 22 23  2  0
 23 24  1  0
 24 25  2  0
 25 26  1  0
 26 27  1  0
 26 28  2  0
 28 29  1  0
 23 30  1  0
 30 31  1  0
 31 32  1  0
 32 33  1  0
 33 34  1  0
 33 35  1  0
 35 36  2  0
 36 37  1  0
 37 38  2  0
 38 39  1  0
 39 40  1  0
 40 41  1  0
 40 42  1  0
 39 43  2  0
  9 44  1  0
 44 45  1  0
 45 46  1  1
 45  5  1  0
 21 10  1  0
 28 22  1  0
 43 35  1  0
 43 14  1  0
 21 15  1  0
M  END
>  <molecule_chembl_id>  (369) 
CHEMBL4863593

>  <canonical_smiles>  (369) 
C=CC(=O)N1C[C@H](C)N(c2nc(=O)n3c4nc(c(F)cc24)-c2c(ccc(F)c2F)OCCC(C)c2ccnc(C(C)C)c2-3)C[C@H]1C

>  <pchembl_value_mean>  (369) 
8.85

>  <inchi>  (369) 
InChI=1S/C34H35F3N6O3/c1-7-26(44)41-15-20(6)42(16-19(41)5)32-22-14-24(36)30-27-25(9-8-23(35)28(27)37)46-13-11-18(4)21-10-12-38-29(17(2)3)31(21)43(33(22)39-30)34(45)40-32/h7-10,12,14,17-20H,1,11,13,15-16H2,2-6H3/t18?,19-,20+/m1/s1

$$$$

     RDKit          2D

 42 49  0  0  0  0  0  0  0  0999 V2000
   -1.5000   -5.1962    0.0000 O   0  0  0  0  0  0  0  0  0  0  0  0
   -0.7500   -3.8971    0.0000 C   0  0  0  0  0  0  0  0  0  0  0  0
    0.7500   -3.8971    0.0000 C   0  0  0  0  0  0  0  0  0  0  0  0
    1.5000   -2.5981    0.0000 C   0  0  0  0  0  0  0  0  0  0  0  0
    3.0000   -2.5981    0.0000 N   0  0  0  0  0  0  0  0  0  0  0  0
    3.7500   -1.2990    0.0000 C   0  0  0  0  0  0  0  0  0  0  0  0
    5.2500   -1.2990    0.0000 C   0  0  0  0  0  0  0  0  0  0  0  0
    6.0000   -2.5981    0.0000 C   0  0  0  0  0  0  0  0  0  0  0  0
    5.2500   -3.8971    0.0000 C   0  0  0  0  0  0  0  0  0  0  0  0
    6.0000   -5.1962    0.0000 N   0  0  0  0  0  0  0  0  0  0  0  0
    7.5000   -5.1962    0.0000 C   0  0  0  0  0  0  0  0  0  0  0  0
    8.2500   -6.4952    0.0000 O   0  0  0  0  0  0  0  0  0  0  0  0
    7.5000   -7.7942    0.0000 C   0  0  0  0  0  0  0  0  0  0  0  0
    8.2500   -9.0933    0.0000 C   0  0  0  0  0  0  0  0  0  0  0  0
    9.6595   -8.5802    0.0000 C   0  0  0  0  0  0  0  0  0  0  0  0
   10.8086   -9.5444    0.0000 N   0  0  0  0  0  0  0  0  0  0  0  0
   10.5481  -11.0216    0.0000 C   0  0  0  0  0  0  0  0  0  0  0  0
   11.6972  -11.9858    0.0000 C   0  0  0  0  0  0  0  0  0  0  0  0
   13.1067  -11.4728    0.0000 O   0  0  0  0  0  0  0  0  0  0  0  0
   13.3672   -9.9956    0.0000 C   0  0  0  0  0  0  0  0  0  0  0  0
   12.2181   -9.0314    0.0000 C   0  0  0  0  0  0  0  0  0  0  0  0
    8.5105  -10.5705    0.0000 C   0  0  0  0  0  0  0  0  0  0  0  0
    7.1009  -10.0574    0.0000 C   0  0  0  0  0  0  0  0  0  0  0  0
    8.2500   -3.8971    0.0000 N   0  0  0  0  0  0  0  0  0  0  0  0
    7.5000   -2.5981    0.0000 C   0  0  0  0  0  0  0  0  0  0  0  0
    8.2500   -1.2990    0.0000 N   0  0  0  0  0  0  0  0  0  0  0  0
    9.7500   -1.2990    0.0000 C   0  0  0  0  0  0  0  0  0  0  0  0
   10.5000    0.0000    0.0000 C   0  0  0  0  0  0  0  0  0  0  0  0
   10.8119    1.4672    0.0000 C   0  0  0  0  0  0  0  0  0  0  0  0
    9.5128    2.2172    0.0000 C   0  0  0  0  0  0  0  0  0  0  0  0
    8.3981    1.2135    0.0000 C   0  0  0  0  0  0  0  0  0  0  0  0
    7.5000    0.0000    0.0000 C   0  0  0  0  0  0  0  0  0  0  0  0
    9.0082   -0.1568    0.0000 N   0  0  0  0  0  0  0  0  0  0  0  0
    3.7500   -3.8971    0.0000 C   0  0  0  0  0  0  0  0  0  0  0  0
    0.7500   -1.2990    0.0000 C   0  0  0  0  0  0  0  0  0  0  0  0
    1.5000    0.0000    0.0000 C   0  0  0  0  0  0  0  0  0  0  0  0
    3.0000    0.0000    0.0000 Br  0  0  0  0  0  0  0  0  0  0  0  0
    0.7500    1.2990    0.0000 C   0  0  0  0  0  0  0  0  0  0  0  0
   -0.7500    1.2990    0.0000 C   0  0  0  0  0  0  0  0  0  0  0  0
   -1.5000    0.0000    0.0000 C   0  0  0  0  0  0  0  0  0  0  0  0
   -0.7500   -1.2990    0.0000 C   0  0  0  0  0  0  0  0  0  0  0  0
   -1.5000   -2.5981    0.0000 C   0  0  0  0  0  0  0  0  0  0  0  0
  1  2  1  0
  2  3  2  0
  3  4  1  0
  4  5  1  0
  5  6  1  0
  6  7  1  0
  7  8  1  0
  8  9  2  0
  9 10  1  0
 10 11  2  0
 11 12  1  0
 12 13  1  0
 13 14  1  0
 14 15  1  0
 15 16  1  0
 16 17  1  0
 17 18  1  0
 18 19  1  0
 19 20  1  0
 20 21  1  0
 14 22  1  0
 22 23  1  0
 11 24  1  0
 24 25  2  0
 25 26  1  0
 26 27  1  0
 27 28  1  0
 28 29  1  0
 29 30  1  0
 30 31  1  0
 31 32  1  0
 31 33  1  0
  9 34  1  0
  4 35  2  0
 35 36  1  0
 36 37  1  0
 36 38  2  0
 38 39  1  0
 39 40  2  0
 40 41  1  0
 41 42  2  0
 42  2  1  0
 34  5  1  0
 41 35  1  0
 25  8  1  0
 32 26  1  0
 23 14  1  0
 33 28  1  0
 21 16  1  0
M  END
>  <molecule_chembl_id>  (370) 
CHEMBL4872714

>  <canonical_smiles>  (370) 
Oc1cc(N2CCc3c(nc(OCC4(CN5CCOCC5)CC4)nc3N3CC4CCC(C3)N4)C2)c2c(Br)cccc2c1

>  <pchembl_value_mean>  (370) 
8.92

>  <inchi>  (370) 
InChI=1S/C32H39BrN6O3/c33-26-3-1-2-21-14-24(40)15-28(29(21)26)38-9-6-25-27(18-38)35-31(36-30(25)39-16-22-4-5-23(17-39)34-22)42-20-32(7-8-32)19-37-10-12-41-13-11-37/h1-3,14-15,22-23,34,40H,4-13,16-20H2

$$$$

     RDKit          2D

 45 50  0  0  0  0  0  0  0  0999 V2000
  -13.2990   -0.7500    0.0000 C   0  0  0  0  0  0  0  0  0  0  0  0
  -11.7990   -0.7500    0.0000 C   0  0  0  0  0  0  0  0  0  0  0  0
  -11.0490   -2.0490    0.0000 C   0  0  0  0  0  0  0  0  0  0  0  0
  -11.7990   -3.3481    0.0000 O   0  0  0  0  0  0  0  0  0  0  0  0
   -9.5490   -2.0490    0.0000 N   0  0  0  0  0  0  0  0  0  0  0  0
   -8.7990   -0.7500    0.0000 C   0  0  0  0  0  0  0  0  0  0  0  0
   -7.2990   -0.7500    0.0000 C   0  0  0  0  0  0  0  0  0  0  0  0
   -6.5490    0.5490    0.0000 C   0  0  0  0  0  0  0  0  0  0  0  0
   -6.5490   -2.0490    0.0000 N   0  0  0  0  0  0  0  0  0  0  0  0
   -5.0490   -2.0490    0.0000 C   0  0  0  0  0  0  0  0  0  0  0  0
   -4.2990   -0.7500    0.0000 N   0  0  0  0  0  0  0  0  0  0  0  0
   -2.7990   -0.7500    0.0000 C   0  0  0  0  0  0  0  0  0  0  0  0
   -2.3857    0.6919    0.0000 O   0  0  0  0  0  0  0  0  0  0  0  0
   -2.0490   -2.0490    0.0000 N   0  0  0  0  0  0  0  0  0  0  0  0
   -2.7990   -3.3481    0.0000 C   0  0  0  0  0  0  0  0  0  0  0  0
   -2.7990   -4.8481    0.0000 N   0  0  0  0  0  0  0  0  0  0  0  0
   -2.0490   -6.1471    0.0000 C   0  0  0  0  0  0  0  0  0  0  0  0
   -3.9018   -5.9156    0.0000 C   0  0  0  0  0  0  0  0  0  0  0  0
   -4.4444   -7.3140    0.0000 Cl  0  0  0  0  0  0  0  0  0  0  0  0
   -4.8416   -4.7465    0.0000 C   0  0  0  0  0  0  0  0  0  0  0  0
   -4.2990   -3.3481    0.0000 C   0  0  0  0  0  0  0  0  0  0  0  0
   -0.7500   -6.8971    0.0000 C   0  0  0  0  0  0  0  0  0  0  0  0
   -1.5000   -8.1962    0.0000 C   0  0  0  0  0  0  0  0  0  0  0  0
   -3.0000   -8.1962    0.0000 F   0  0  0  0  0  0  0  0  0  0  0  0
   -0.7500   -9.4952    0.0000 C   0  0  0  0  0  0  0  0  0  0  0  0
    0.7500   -9.4952    0.0000 C   0  0  0  0  0  0  0  0  0  0  0  0
    1.5000   -8.1962    0.0000 C   0  0  0  0  0  0  0  0  0  0  0  0
    3.0000   -8.1962    0.0000 F   0  0  0  0  0  0  0  0  0  0  0  0
    0.7500   -6.8971    0.0000 C   0  0  0  0  0  0  0  0  0  0  0  0
    2.0490   -6.1471    0.0000 O   0  0  0  0  0  0  0  0  0  0  0  0
    2.7990   -4.8481    0.0000 C   0  0  0  0  0  0  0  0  0  0  0  0
    2.7990   -3.3481    0.0000 C   0  0  0  0  0  0  0  0  0  0  0  0
    2.0490   -2.0490    0.0000 O   0  0  0  0  0  0  0  0  0  0  0  0
    0.7500   -1.2990    0.0000 C   0  0  0  0  0  0  0  0  0  0  0  0
    1.5000    0.0000    0.0000 C   0  0  0  0  0  0  0  0  0  0  0  0
    0.7500    1.2990    0.0000 C   0  0  0  0  0  0  0  0  0  0  0  0
   -0.7500    1.2990    0.0000 N   0  0  0  0  0  0  0  0  0  0  0  0
   -1.5000    0.0000    0.0000 C   0  0  0  0  0  0  0  0  0  0  0  0
   -3.0000    0.0000    0.0000 C   0  0  0  0  0  0  0  0  0  0  0  0
   -3.7500    1.2990    0.0000 C   0  0  0  0  0  0  0  0  0  0  0  0
   -3.5538   -0.5734    0.0000 C   0  0  0  0  0  0  0  0  0  0  0  0
   -0.7500   -1.2990    0.0000 C   0  0  0  0  0  0  0  0  0  0  0  0
   -7.2990   -3.3481    0.0000 C   0  0  0  0  0  0  0  0  0  0  0  0
   -8.7990   -3.3481    0.0000 C   0  0  0  0  0  0  0  0  0  0  0  0
   -9.5490   -4.6471    0.0000 C   0  0  0  0  0  0  0  0  0  0  0  0
  1  2  2  0
  2  3  1  0
  3  4  2  0
  3  5  1  0
  5  6  1  0
  6  7  1  0
  7  8  1  6
  7  9  1  0
  9 10  1  0
 10 11  2  0
 11 12  1  0
 12 13  2  0
 12 14  1  0
 14 15  1  0
 15 16  2  0
 16 17  1  0
 17 18  2  0
 18 19  1  0
 18 20  1  0
 20 21  2  0
 17 22  1  0
 22 23  2  0
 23 24  1  0
 23 25  1  0
 25 26  2  0
 26 27  1  0
 27 28  1  0
 27 29  2  0
 29 30  1  0
 30 31  1  0
 31 32  1  0
 32 33  1  0
 33 34  1  0
 34 35  2  0
 35 36  1  0
 36 37  2  0
 37 38  1  0
 38 39  1  0
 39 40  1  0
 39 41  1  0
 38 42  2  0
  9 43  1  0
 43 44  1  0
 44 45  1  1
 44  5  1  0
 21 10  1  0
 29 22  1  0
 42 34  1  0
 42 14  1  0
 21 15  1  0
M  END
>  <molecule_chembl_id>  (371) 
CHEMBL4875422

>  <canonical_smiles>  (371) 
C=CC(=O)N1C[C@H](C)N(c2nc(=O)n3c4nc(c(Cl)cc24)-c2c(F)ccc(F)c2OCCOc2ccnc(C(C)C)c2-3)C[C@H]1C

>  <pchembl_value_mean>  (371) 
8.96

>  <inchi>  (371) 
InChI=1S/C32H31ClF2N6O4/c1-6-24(42)39-14-18(5)40(15-17(39)4)30-19-13-20(33)27-25-21(34)7-8-22(35)29(25)45-12-11-44-23-9-10-36-26(16(2)3)28(23)41(31(19)37-27)32(43)38-30/h6-10,13,16-18H,1,11-12,14-15H2,2-5H3/t17-,18+/m1/s1

$$$$

     RDKit          2D

 45 50  0  0  0  0  0  0  0  0999 V2000
    9.7500   -3.8971    0.0000 C   0  0  0  0  0  0  0  0  0  0  0  0
    8.2500   -3.8971    0.0000 C   0  0  0  0  0  0  0  0  0  0  0  0
    7.5000   -2.5981    0.0000 C   0  0  0  0  0  0  0  0  0  0  0  0
    8.2500   -1.2990    0.0000 O   0  0  0  0  0  0  0  0  0  0  0  0
    6.0000   -2.5981    0.0000 N   0  0  0  0  0  0  0  0  0  0  0  0
    5.2500   -3.8971    0.0000 C   0  0  0  0  0  0  0  0  0  0  0  0
    3.7500   -3.8971    0.0000 C   0  0  0  0  0  0  0  0  0  0  0  0
    3.0000   -2.5981    0.0000 N   0  0  0  0  0  0  0  0  0  0  0  0
    1.5000   -2.5981    0.0000 C   0  0  0  0  0  0  0  0  0  0  0  0
    0.7500   -3.8971    0.0000 C   0  0  0  0  0  0  0  0  0  0  0  0
   -0.7500   -3.8971    0.0000 C   0  0  0  0  0  0  0  0  0  0  0  0
   -1.5000   -5.1962    0.0000 C   0  0  0  0  0  0  0  0  0  0  0  0
   -0.7500   -6.4952    0.0000 O   0  0  0  0  0  0  0  0  0  0  0  0
   -3.0000   -5.1962    0.0000 N   0  0  0  0  0  0  0  0  0  0  0  0
   -3.7500   -6.4952    0.0000 C   0  0  0  0  0  0  0  0  0  0  0  0
   -3.1399   -7.8655    0.0000 C   0  0  0  0  0  0  0  0  0  0  0  0
   -4.2546   -8.8692    0.0000 C   0  0  0  0  0  0  0  0  0  0  0  0
   -5.5537   -8.1192    0.0000 C   0  0  0  0  0  0  0  0  0  0  0  0
   -5.2418   -6.6520    0.0000 C   0  0  0  0  0  0  0  0  0  0  0  0
   -6.2455   -5.5373    0.0000 N   0  0  0  0  0  0  0  0  0  0  0  0
   -7.7127   -5.8491    0.0000 C   0  0  0  0  0  0  0  0  0  0  0  0
   -5.7820   -4.1107    0.0000 C   0  0  0  0  0  0  0  0  0  0  0  0
   -1.5000   -2.5981    0.0000 N   0  0  0  0  0  0  0  0  0  0  0  0
   -0.7500   -1.2990    0.0000 C   0  0  0  0  0  0  0  0  0  0  0  0
    0.7500   -1.2990    0.0000 C   0  0  0  0  0  0  0  0  0  0  0  0
    1.5000    0.0000    0.0000 C   0  0  0  0  0  0  0  0  0  0  0  0
    0.7500    1.2990    0.0000 C   0  0  0  0  0  0  0  0  0  0  0  0
   -0.7500    1.2990    0.0000 N   0  0  0  0  0  0  0  0  0  0  0  0
   -1.5000    2.5981    0.0000 C   0  0  0  0  0  0  0  0  0  0  0  0
   -3.0000    2.5981    0.0000 C   0  0  0  0  0  0  0  0  0  0  0  0
   -3.7500    3.8971    0.0000 C   0  0  0  0  0  0  0  0  0  0  0  0
   -3.0000    5.1962    0.0000 C   0  0  0  0  0  0  0  0  0  0  0  0
   -1.5000    5.1962    0.0000 C   0  0  0  0  0  0  0  0  0  0  0  0
   -0.7500    6.4952    0.0000 C   0  0  0  0  0  0  0  0  0  0  0  0
    0.7500    6.4952    0.0000 C   0  0  0  0  0  0  0  0  0  0  0  0
    1.5000    5.1962    0.0000 C   0  0  0  0  0  0  0  0  0  0  0  0
    0.7500    3.8971    0.0000 C   0  0  0  0  0  0  0  0  0  0  0  0
    1.5000    2.5981    0.0000 C   0  0  0  0  0  0  0  0  0  0  0  0
   -0.7500    3.8971    0.0000 C   0  0  0  0  0  0  0  0  0  0  0  0
   -1.5000    0.0000    0.0000 C   0  0  0  0  0  0  0  0  0  0  0  0
    3.7500   -1.2990    0.0000 C   0  0  0  0  0  0  0  0  0  0  0  0
    5.2500   -1.2990    0.0000 C   0  0  0  0  0  0  0  0  0  0  0  0
    6.0000   -0.0000    0.0000 C   0  0  0  0  0  0  0  0  0  0  0  0
    5.2500    1.2990    0.0000 C   0  0  0  0  0  0  0  0  0  0  0  0
    4.5000    2.5981    0.0000 N   0  0  0  0  0  0  0  0  0  0  0  0
  1  2  2  0
  2  3  1  0
  3  4  2  0
  3  5  1  0
  5  6  1  0
  6  7  1  0
  7  8  1  0
  8  9  1  0
  9 10  2  0
 10 11  1  0
 11 12  1  0
 12 13  2  0
 12 14  1  0
 15 14  1  6
 15 16  1  0
 16 17  1  0
 17 18  1  0
 18 19  1  0
 19 20  1  1
 20 21  1  0
 20 22  1  0
 11 23  2  0
 23 24  1  0
 24 25  2  0
 25 26  1  0
 26 27  1  0
 27 28  1  0
 28 29  1  0
 29 30  2  0
 30 31  1  0
 31 32  2  0
 32 33  1  0
 33 34  2  0
 34 35  1  0
 35 36  2  0
 36 37  1  0
 37 38  1  0
 37 39  2  0
 28 40  1  0
  8 41  1  0
 41 42  1  0
 42 43  1  6
 43 44  1  0
 44 45  3  0
 42  5  1  0
 25  9  1  0
 39 29  1  0
 19 15  1  0
 40 24  1  0
 39 33  1  0
M  END
>  <molecule_chembl_id>  (372) 
CHEMBL4874744

>  <canonical_smiles>  (372) 
C=CC(=O)N1CCN(c2cc(C(=O)N[C@@H]3CCC[C@H]3N(C)C)nc3c2CCN(c2cccc4cccc(C)c24)C3)C[C@@H]1CC#N

>  <pchembl_value_mean>  (372) 
9.0

>  <inchi>  (372) 
InChI=1S/C36H43N7O2/c1-5-34(44)43-20-19-42(22-26(43)15-17-37)33-21-29(36(45)39-28-12-8-13-31(28)40(3)4)38-30-23-41(18-16-27(30)33)32-14-7-11-25-10-6-9-24(2)35(25)32/h5-7,9-11,14,21,26,28,31H,1,8,12-13,15-16,18-20,22-23H2,2-4H3,(H,39,45)/t26-,28+,31+/m0/s1

$$$$

     RDKit          2D

 42 47  0  0  0  0  0  0  0  0999 V2000
    9.7500   -3.8971    0.0000 C   0  0  0  0  0  0  0  0  0  0  0  0
    8.2500   -3.8971    0.0000 C   0  0  0  0  0  0  0  0  0  0  0  0
    7.5000   -2.5981    0.0000 C   0  0  0  0  0  0  0  0  0  0  0  0
    8.2500   -1.2990    0.0000 O   0  0  0  0  0  0  0  0  0  0  0  0
    6.0000   -2.5981    0.0000 N   0  0  0  0  0  0  0  0  0  0  0  0
    5.2500   -3.8971    0.0000 C   0  0  0  0  0  0  0  0  0  0  0  0
    3.7500   -3.8971    0.0000 C   0  0  0  0  0  0  0  0  0  0  0  0
    3.0000   -2.5981    0.0000 N   0  0  0  0  0  0  0  0  0  0  0  0
    1.5000   -2.5981    0.0000 C   0  0  0  0  0  0  0  0  0  0  0  0
    0.7500   -3.8971    0.0000 N   0  0  0  0  0  0  0  0  0  0  0  0
   -0.7500   -3.8971    0.0000 C   0  0  0  0  0  0  0  0  0  0  0  0
   -1.5000   -5.1962    0.0000 O   0  0  0  0  0  0  0  0  0  0  0  0
   -3.0000   -5.1962    0.0000 C   0  0  0  0  0  0  0  0  0  0  0  0
   -3.7500   -6.4952    0.0000 C   0  0  0  0  0  0  0  0  0  0  0  0
   -3.1399   -7.8655    0.0000 C   0  0  0  0  0  0  0  0  0  0  0  0
   -4.2546   -8.8692    0.0000 C   0  0  0  0  0  0  0  0  0  0  0  0
   -5.5537   -8.1192    0.0000 C   0  0  0  0  0  0  0  0  0  0  0  0
   -5.2418   -6.6520    0.0000 N   0  0  0  0  0  0  0  0  0  0  0  0
   -6.2455   -5.5373    0.0000 C   0  0  0  0  0  0  0  0  0  0  0  0
   -1.5000   -2.5981    0.0000 N   0  0  0  0  0  0  0  0  0  0  0  0
   -0.7500   -1.2990    0.0000 C   0  0  0  0  0  0  0  0  0  0  0  0
    0.7500   -1.2990    0.0000 C   0  0  0  0  0  0  0  0  0  0  0  0
    1.5000    0.0000    0.0000 C   0  0  0  0  0  0  0  0  0  0  0  0
    0.7500    1.2990    0.0000 C   0  0  0  0  0  0  0  0  0  0  0  0
   -0.7500    1.2990    0.0000 N   0  0  0  0  0  0  0  0  0  0  0  0
   -1.5000    2.5981    0.0000 C   0  0  0  0  0  0  0  0  0  0  0  0
   -3.0000    2.5981    0.0000 C   0  0  0  0  0  0  0  0  0  0  0  0
   -3.7500    3.8971    0.0000 C   0  0  0  0  0  0  0  0  0  0  0  0
   -3.0000    5.1962    0.0000 C   0  0  0  0  0  0  0  0  0  0  0  0
   -1.5000    5.1962    0.0000 C   0  0  0  0  0  0  0  0  0  0  0  0
   -0.7500    6.4952    0.0000 C   0  0  0  0  0  0  0  0  0  0  0  0
    0.7500    6.4952    0.0000 C   0  0  0  0  0  0  0  0  0  0  0  0
    1.5000    5.1962    0.0000 C   0  0  0  0  0  0  0  0  0  0  0  0
    0.7500    3.8971    0.0000 C   0  0  0  0  0  0  0  0  0  0  0  0
    1.5000    2.5981    0.0000 C   0  0  0  0  0  0  0  0  0  0  0  0
   -0.7500    3.8971    0.0000 C   0  0  0  0  0  0  0  0  0  0  0  0
   -1.5000    0.0000    0.0000 C   0  0  0  0  0  0  0  0  0  0  0  0
    3.7500   -1.2990    0.0000 C   0  0  0  0  0  0  0  0  0  0  0  0
    5.2500   -1.2990    0.0000 C   0  0  0  0  0  0  0  0  0  0  0  0
    6.0000   -0.0000    0.0000 C   0  0  0  0  0  0  0  0  0  0  0  0
    5.2500    1.2990    0.0000 C   0  0  0  0  0  0  0  0  0  0  0  0
    4.5000    2.5981    0.0000 N   0  0  0  0  0  0  0  0  0  0  0  0
  1  2  2  0
  2  3  1  0
  3  4  2  0
  3  5  1  0
  5  6  1  0
  6  7  1  0
  7  8  1  0
  8  9  1  0
  9 10  2  0
 10 11  1  0
 11 12  1  0
 12 13  1  0
 14 13  1  6
 14 15  1  0
 15 16  1  0
 16 17  1  0
 17 18  1  0
 18 19  1  0
 11 20  2  0
 20 21  1  0
 21 22  2  0
 22 23  1  0
 23 24  1  0
 24 25  1  0
 25 26  1  0
 26 27  2  0
 27 28  1  0
 28 29  2  0
 29 30  1  0
 30 31  2  0
 31 32  1  0
 32 33  2  0
 33 34  1  0
 34 35  1  0
 34 36  2  0
 25 37  1  0
  8 38  1  0
 38 39  1  0
 39 40  1  6
 40 41  1  0
 41 42  3  0
 39  5  1  0
 22  9  1  0
 36 26  1  0
 18 14  1  0
 37 21  1  0
 36 30  1  0
M  END
>  <molecule_chembl_id>  (373) 
CHEMBL4632935

>  <canonical_smiles>  (373) 
C=CC(=O)N1CCN(c2nc(OC[C@@H]3CCCN3C)nc3c2CCN(c2cccc4cccc(C)c24)C3)C[C@@H]1CC#N

>  <pchembl_value_mean>  (373) 
9.0

>  <inchi>  (373) 
InChI=1S/C33H39N7O2/c1-4-30(41)40-19-18-39(20-25(40)13-15-34)32-27-14-17-38(29-12-6-10-24-9-5-8-23(2)31(24)29)21-28(27)35-33(36-32)42-22-26-11-7-16-37(26)3/h4-6,8-10,12,25-26H,1,7,11,13-14,16-22H2,2-3H3/t25-,26-/m0/s1

$$$$

     RDKit          2D

 42 47  0  0  0  0  0  0  0  0999 V2000
    9.7500   -3.8971    0.0000 C   0  0  0  0  0  0  0  0  0  0  0  0
    8.2500   -3.8971    0.0000 C   0  0  0  0  0  0  0  0  0  0  0  0
    7.5000   -2.5981    0.0000 C   0  0  0  0  0  0  0  0  0  0  0  0
    8.2500   -1.2990    0.0000 O   0  0  0  0  0  0  0  0  0  0  0  0
    6.0000   -2.5981    0.0000 N   0  0  0  0  0  0  0  0  0  0  0  0
    5.2500   -3.8971    0.0000 C   0  0  0  0  0  0  0  0  0  0  0  0
    3.7500   -3.8971    0.0000 C   0  0  0  0  0  0  0  0  0  0  0  0
    3.0000   -2.5981    0.0000 N   0  0  0  0  0  0  0  0  0  0  0  0
    1.5000   -2.5981    0.0000 C   0  0  0  0  0  0  0  0  0  0  0  0
    0.7500   -3.8971    0.0000 N   0  0  0  0  0  0  0  0  0  0  0  0
   -0.7500   -3.8971    0.0000 C   0  0  0  0  0  0  0  0  0  0  0  0
   -1.5000   -5.1962    0.0000 O   0  0  0  0  0  0  0  0  0  0  0  0
   -3.0000   -5.1962    0.0000 C   0  0  0  0  0  0  0  0  0  0  0  0
   -3.7500   -6.4952    0.0000 C   0  0  0  0  0  0  0  0  0  0  0  0
   -3.1399   -7.8655    0.0000 C   0  0  0  0  0  0  0  0  0  0  0  0
   -4.2546   -8.8692    0.0000 C   0  0  0  0  0  0  0  0  0  0  0  0
   -5.5537   -8.1192    0.0000 C   0  0  0  0  0  0  0  0  0  0  0  0
   -5.2418   -6.6520    0.0000 N   0  0  0  0  0  0  0  0  0  0  0  0
   -6.2455   -5.5373    0.0000 C   0  0  0  0  0  0  0  0  0  0  0  0
   -1.5000   -2.5981    0.0000 N   0  0  0  0  0  0  0  0  0  0  0  0
   -0.7500   -1.2990    0.0000 C   0  0  0  0  0  0  0  0  0  0  0  0
    0.7500   -1.2990    0.0000 C   0  0  0  0  0  0  0  0  0  0  0  0
    1.5000    0.0000    0.0000 C   0  0  0  0  0  0  0  0  0  0  0  0
    0.7500    1.2990    0.0000 C   0  0  0  0  0  0  0  0  0  0  0  0
   -0.7500    1.2990    0.0000 N   0  0  0  0  0  0  0  0  0  0  0  0
   -1.5000    2.5981    0.0000 C   0  0  0  0  0  0  0  0  0  0  0  0
   -3.0000    2.5981    0.0000 C   0  0  0  0  0  0  0  0  0  0  0  0
   -3.7500    3.8971    0.0000 C   0  0  0  0  0  0  0  0  0  0  0  0
   -3.0000    5.1962    0.0000 C   0  0  0  0  0  0  0  0  0  0  0  0
   -1.5000    5.1962    0.0000 C   0  0  0  0  0  0  0  0  0  0  0  0
   -0.7500    6.4952    0.0000 C   0  0  0  0  0  0  0  0  0  0  0  0
    0.7500    6.4952    0.0000 C   0  0  0  0  0  0  0  0  0  0  0  0
    1.5000    5.1962    0.0000 C   0  0  0  0  0  0  0  0  0  0  0  0
    0.7500    3.8971    0.0000 C   0  0  0  0  0  0  0  0  0  0  0  0
    1.5000    2.5981    0.0000 Cl  0  0  0  0  0  0  0  0  0  0  0  0
   -0.7500    3.8971    0.0000 C   0  0  0  0  0  0  0  0  0  0  0  0
   -1.5000    0.0000    0.0000 C   0  0  0  0  0  0  0  0  0  0  0  0
    3.7500   -1.2990    0.0000 C   0  0  0  0  0  0  0  0  0  0  0  0
    5.2500   -1.2990    0.0000 C   0  0  0  0  0  0  0  0  0  0  0  0
    6.0000   -0.0000    0.0000 C   0  0  0  0  0  0  0  0  0  0  0  0
    5.2500    1.2990    0.0000 C   0  0  0  0  0  0  0  0  0  0  0  0
    4.5000    2.5981    0.0000 N   0  0  0  0  0  0  0  0  0  0  0  0
  1  2  2  0
  2  3  1  0
  3  4  2  0
  3  5  1  0
  5  6  1  0
  6  7  1  0
  7  8  1  0
  8  9  1  0
  9 10  2  0
 10 11  1  0
 11 12  1  0
 12 13  1  0
 14 13  1  6
 14 15  1  0
 15 16  1  0
 16 17  1  0
 17 18  1  0
 18 19  1  0
 11 20  2  0
 20 21  1  0
 21 22  2  0
 22 23  1  0
 23 24  1  0
 24 25  1  0
 25 26  1  0
 26 27  2  0
 27 28  1  0
 28 29  2  0
 29 30  1  0
 30 31  2  0
 31 32  1  0
 32 33  2  0
 33 34  1  0
 34 35  1  0
 34 36  2  0
 25 37  1  0
  8 38  1  0
 38 39  1  0
 39 40  1  6
 40 41  1  0
 41 42  3  0
 39  5  1  0
 22  9  1  0
 36 26  1  0
 18 14  1  0
 37 21  1  0
 36 30  1  0
M  END
>  <molecule_chembl_id>  (374) 
CHEMBL4648852

>  <canonical_smiles>  (374) 
C=CC(=O)N1CCN(c2nc(OC[C@@H]3CCCN3C)nc3c2CCN(c2cccc4cccc(Cl)c24)C3)C[C@@H]1CC#N

>  <pchembl_value_mean>  (374) 
9.0

>  <inchi>  (374) 
InChI=1S/C32H36ClN7O2/c1-3-29(41)40-18-17-39(19-23(40)12-14-34)31-25-13-16-38(28-11-5-8-22-7-4-10-26(33)30(22)28)20-27(25)35-32(36-31)42-21-24-9-6-15-37(24)2/h3-5,7-8,10-11,23-24H,1,6,9,12-13,15-21H2,2H3/t23-,24-/m0/s1

$$$$

     RDKit          2D

146152  0  0  0  0  0  0  0  0999 V2000
  -15.0482    9.7925    0.0000 C   0  0  0  0  0  0  0  0  0  0  0  0
  -13.5723    9.5246    0.0000 C   0  0  0  0  0  0  0  0  0  0  0  0
  -12.6024   10.6689    0.0000 C   0  0  0  0  0  0  0  0  0  0  0  0
  -13.1084   12.0810    0.0000 C   0  0  0  0  0  0  0  0  0  0  0  0
  -11.1265   10.4011    0.0000 C   0  0  0  0  0  0  0  0  0  0  0  0
  -10.7274   11.8470    0.0000 N   0  0  0  0  0  0  0  0  0  0  0  0
  -10.0766   13.1984    0.0000 C   0  0  0  0  0  0  0  0  0  0  0  0
  -11.3643   13.9678    0.0000 O   0  0  0  0  0  0  0  0  0  0  0  0
   -9.1949   14.4120    0.0000 C   0  0  0  0  0  0  0  0  0  0  0  0
  -10.3245   15.3989    0.0000 C   0  0  0  0  0  0  0  0  0  0  0  0
  -11.7440   14.9141    0.0000 C   0  0  0  0  0  0  0  0  0  0  0  0
  -12.0339   13.4423    0.0000 C   0  0  0  0  0  0  0  0  0  0  0  0
  -13.4534   12.9575    0.0000 C   0  0  0  0  0  0  0  0  0  0  0  0
  -14.5830   13.9444    0.0000 C   0  0  0  0  0  0  0  0  0  0  0  0
  -16.0025   13.4596    0.0000 C   0  0  0  0  0  0  0  0  0  0  0  0
  -16.2924   11.9879    0.0000 C   0  0  0  0  0  0  0  0  0  0  0  0
  -17.7119   11.5031    0.0000 C   0  0  0  0  0  0  0  0  0  0  0  0
  -18.8415   12.4900    0.0000 C   0  0  0  0  0  0  0  0  0  0  0  0
  -18.5516   13.9617    0.0000 C   0  0  0  0  0  0  0  0  0  0  0  0
  -17.1321   14.4465    0.0000 C   0  0  0  0  0  0  0  0  0  0  0  0
  -14.2931   15.4162    0.0000 C   0  0  0  0  0  0  0  0  0  0  0  0
  -12.8736   15.9010    0.0000 C   0  0  0  0  0  0  0  0  0  0  0  0
   -8.1107   15.4486    0.0000 N   0  0  0  0  0  0  0  0  0  0  0  0
   -6.8589   16.2749    0.0000 C   0  0  0  0  0  0  0  0  0  0  0  0
   -7.5697   17.5958    0.0000 O   0  0  0  0  0  0  0  0  0  0  0  0
   -5.4796   16.8645    0.0000 C   0  0  0  0  0  0  0  0  0  0  0  0
   -5.9431   18.2910    0.0000 C   0  0  0  0  0  0  0  0  0  0  0  0
   -7.4103   18.6029    0.0000 C   0  0  0  0  0  0  0  0  0  0  0  0
   -7.8739   20.0295    0.0000 C   0  0  0  0  0  0  0  0  0  0  0  0
   -8.4140   17.4882    0.0000 C   0  0  0  0  0  0  0  0  0  0  0  0
   -4.0172   17.1982    0.0000 N   0  0  0  0  0  0  0  0  0  0  0  0
   -2.5187   17.2655    0.0000 C   0  0  0  0  0  0  0  0  0  0  0  0
   -2.8160   18.7358    0.0000 O   0  0  0  0  0  0  0  0  0  0  0  0
   -1.0323   17.0642    0.0000 C   0  0  0  0  0  0  0  0  0  0  0  0
   -1.0323   18.5642    0.0000 C   0  0  0  0  0  0  0  0  0  0  0  0
   -2.2458   19.4459    0.0000 C   0  0  0  0  0  0  0  0  0  0  0  0
   -2.0890   20.9376    0.0000 C   0  0  0  0  0  0  0  0  0  0  0  0
   -3.3025   21.8193    0.0000 C   0  0  0  0  0  0  0  0  0  0  0  0
   -4.6729   21.2092    0.0000 C   0  0  0  0  0  0  0  0  0  0  0  0
   -4.8297   19.7174    0.0000 C   0  0  0  0  0  0  0  0  0  0  0  0
   -3.6161   18.8358    0.0000 C   0  0  0  0  0  0  0  0  0  0  0  0
    0.3943   19.0277    0.0000 C   0  0  0  0  0  0  0  0  0  0  0  0
    1.2760   17.8142    0.0000 C   0  0  0  0  0  0  0  0  0  0  0  0
    0.3943   16.6007    0.0000 N   0  0  0  0  0  0  0  0  0  0  0  0
    1.7152   15.8899    0.0000 C   0  0  0  0  0  0  0  0  0  0  0  0
    2.5415   17.1417    0.0000 O   0  0  0  0  0  0  0  0  0  0  0  0
    2.8879   14.9546    0.0000 C   0  0  0  0  0  0  0  0  0  0  0  0
    3.9245   16.0388    0.0000 N   0  0  0  0  0  0  0  0  0  0  0  0
    5.3818   15.6832    0.0000 C   0  0  0  0  0  0  0  0  0  0  0  0
    5.8024   14.2434    0.0000 O   0  0  0  0  0  0  0  0  0  0  0  0
    6.4184   16.7674    0.0000 C   0  0  0  0  0  0  0  0  0  0  0  0
    7.8756   16.4118    0.0000 C   0  0  0  0  0  0  0  0  0  0  0  0
    8.9122   17.4960    0.0000 C   0  0  0  0  0  0  0  0  0  0  0  0
   10.3694   17.1403    0.0000 C   0  0  0  0  0  0  0  0  0  0  0  0
   11.4060   18.2245    0.0000 N   0  0  0  0  0  0  0  0  0  0  0  0
   12.8633   17.8689    0.0000 C   0  0  0  0  0  0  0  0  0  0  0  0
   13.2839   16.4291    0.0000 N   0  0  0  0  0  0  0  0  0  0  0  0
   13.8998   18.9531    0.0000 N   0  0  0  0  0  0  0  0  0  0  0  0
    5.9977   18.2072    0.0000 N   0  0  0  0  0  0  0  0  0  0  0  0
    7.0343   19.2914    0.0000 C   0  0  0  0  0  0  0  0  0  0  0  0
    8.4915   18.9358    0.0000 O   0  0  0  0  0  0  0  0  0  0  0  0
    6.6137   20.7312    0.0000 C   0  0  0  0  0  0  0  0  0  0  0  0
    7.6503   21.8154    0.0000 C   0  0  0  0  0  0  0  0  0  0  0  0
    7.2296   23.2552    0.0000 C   0  0  0  0  0  0  0  0  0  0  0  0
    8.2662   24.3394    0.0000 C   0  0  0  0  0  0  0  0  0  0  0  0
    7.8456   25.7792    0.0000 N   0  0  0  0  0  0  0  0  0  0  0  0
    8.8822   26.8634    0.0000 C   0  0  0  0  0  0  0  0  0  0  0  0
   10.3394   26.5078    0.0000 N   0  0  0  0  0  0  0  0  0  0  0  0
    8.4615   28.3032    0.0000 N   0  0  0  0  0  0  0  0  0  0  0  0
    5.1564   21.0868    0.0000 N   0  0  0  0  0  0  0  0  0  0  0  0
    4.7358   22.5266    0.0000 C   0  0  0  0  0  0  0  0  0  0  0  0
    3.2786   22.8823    0.0000 C   0  0  0  0  0  0  0  0  0  0  0  0
    5.7724   23.6108    0.0000 O   0  0  0  0  0  0  0  0  0  0  0  0
    3.8748   13.8250    0.0000 C   0  0  0  0  0  0  0  0  0  0  0  0
    4.6442   12.5373    0.0000 S   0  0  0  0  0  0  0  0  0  0  0  0
    5.1713   11.1330    0.0000 S   0  0  0  0  0  0  0  0  0  0  0  0
    5.4391    9.6571    0.0000 C   0  0  0  0  0  0  0  0  0  0  0  0
    5.4391    8.1571    0.0000 C   0  0  0  0  0  0  0  0  0  0  0  0
    6.9331    8.0226    0.0000 C   0  0  0  0  0  0  0  0  0  0  0  0
    7.7965    9.2492    0.0000 O   0  0  0  0  0  0  0  0  0  0  0  0
    7.5636    6.6616    0.0000 N   0  0  0  0  0  0  0  0  0  0  0  0
    9.0576    6.5271    0.0000 C   0  0  0  0  0  0  0  0  0  0  0  0
    9.6881    5.1661    0.0000 C   0  0  0  0  0  0  0  0  0  0  0  0
   11.1820    5.0316    0.0000 C   0  0  0  0  0  0  0  0  0  0  0  0
   11.8126    3.6706    0.0000 C   0  0  0  0  0  0  0  0  0  0  0  0
   13.3065    3.5361    0.0000 N   0  0  0  0  0  0  0  0  0  0  0  0
   13.9371    2.1751    0.0000 C   0  0  0  0  0  0  0  0  0  0  0  0
   13.0737    0.9485    0.0000 N   0  0  0  0  0  0  0  0  0  0  0  0
   15.4310    2.0406    0.0000 N   0  0  0  0  0  0  0  0  0  0  0  0
    9.9210    7.7537    0.0000 C   0  0  0  0  0  0  0  0  0  0  0  0
    9.2904    9.1148    0.0000 O   0  0  0  0  0  0  0  0  0  0  0  0
   11.4149    7.6193    0.0000 N   0  0  0  0  0  0  0  0  0  0  0  0
   12.2784    8.8458    0.0000 C   0  0  0  0  0  0  0  0  0  0  0  0
   13.7723    8.7114    0.0000 C   0  0  0  0  0  0  0  0  0  0  0  0
   14.6358    9.9380    0.0000 C   0  0  0  0  0  0  0  0  0  0  0  0
   16.1297    9.8035    0.0000 C   0  0  0  0  0  0  0  0  0  0  0  0
   16.9931   11.0301    0.0000 N   0  0  0  0  0  0  0  0  0  0  0  0
   18.4871   10.8956    0.0000 C   0  0  0  0  0  0  0  0  0  0  0  0
   19.1176    9.5346    0.0000 N   0  0  0  0  0  0  0  0  0  0  0  0
   19.3505   12.1222    0.0000 N   0  0  0  0  0  0  0  0  0  0  0  0
   11.6478   10.2069    0.0000 C   0  0  0  0  0  0  0  0  0  0  0  0
   12.5113   11.4335    0.0000 N   0  0  0  0  0  0  0  0  0  0  0  0
   10.1539   10.3413    0.0000 O   0  0  0  0  0  0  0  0  0  0  0  0
    5.1713    6.6812    0.0000 N   0  0  0  0  0  0  0  0  0  0  0  0
    4.6442    5.2768    0.0000 C   0  0  0  0  0  0  0  0  0  0  0  0
    5.9956    4.6260    0.0000 O   0  0  0  0  0  0  0  0  0  0  0  0
    3.8748    3.9892    0.0000 C   0  0  0  0  0  0  0  0  0  0  0  0
    5.0884    3.1075    0.0000 C   0  0  0  0  0  0  0  0  0  0  0  0
    4.9316    1.6157    0.0000 C   0  0  0  0  0  0  0  0  0  0  0  0
    6.4587    3.7176    0.0000 C   0  0  0  0  0  0  0  0  0  0  0  0
    2.8879    2.8596    0.0000 N   0  0  0  0  0  0  0  0  0  0  0  0
    1.7152    1.9243    0.0000 C   0  0  0  0  0  0  0  0  0  0  0  0
    2.5415    0.6725    0.0000 O   0  0  0  0  0  0  0  0  0  0  0  0
    0.3943    1.2135    0.0000 C   0  0  0  0  0  0  0  0  0  0  0  0
    1.2760    0.0000    0.0000 C   0  0  0  0  0  0  0  0  0  0  0  0
    0.3943   -1.2135    0.0000 C   0  0  0  0  0  0  0  0  0  0  0  0
   -1.0323   -0.7500    0.0000 C   0  0  0  0  0  0  0  0  0  0  0  0
   -1.0323    0.7500    0.0000 N   0  0  0  0  0  0  0  0  0  0  0  0
   -2.5187    0.5487    0.0000 C   0  0  0  0  0  0  0  0  0  0  0  0
   -2.4514   -0.9498    0.0000 O   0  0  0  0  0  0  0  0  0  0  0  0
   -4.0172    0.6159    0.0000 C   0  0  0  0  0  0  0  0  0  0  0  0
   -4.2186   -0.8705    0.0000 C   0  0  0  0  0  0  0  0  0  0  0  0
   -5.6065   -1.4393    0.0000 C   0  0  0  0  0  0  0  0  0  0  0  0
   -6.7931   -0.5217    0.0000 O   0  0  0  0  0  0  0  0  0  0  0  0
   -5.8079   -2.9257    0.0000 O   0  0  0  0  0  0  0  0  0  0  0  0
   -5.4796    0.9497    0.0000 N   0  0  0  0  0  0  0  0  0  0  0  0
   -6.8589    1.5393    0.0000 C   0  0  0  0  0  0  0  0  0  0  0  0
   -7.5697    0.2184    0.0000 O   0  0  0  0  0  0  0  0  0  0  0  0
   -8.1107    2.3656    0.0000 C   0  0  0  0  0  0  0  0  0  0  0  0
   -9.0460    1.1929    0.0000 C   0  0  0  0  0  0  0  0  0  0  0  0
  -10.5292    1.4164    0.0000 C   0  0  0  0  0  0  0  0  0  0  0  0
  -11.0772    2.8127    0.0000 C   0  0  0  0  0  0  0  0  0  0  0  0
  -12.5605    3.0363    0.0000 C   0  0  0  0  0  0  0  0  0  0  0  0
  -13.4957    1.8636    0.0000 C   0  0  0  0  0  0  0  0  0  0  0  0
  -14.9790    2.0871    0.0000 O   0  0  0  0  0  0  0  0  0  0  0  0
  -12.9477    0.4672    0.0000 C   0  0  0  0  0  0  0  0  0  0  0  0
  -11.4645    0.2437    0.0000 C   0  0  0  0  0  0  0  0  0  0  0  0
   -9.1949    3.4022    0.0000 N   0  0  0  0  0  0  0  0  0  0  0  0
  -10.0766    4.6157    0.0000 C   0  0  0  0  0  0  0  0  0  0  0  0
  -11.3643    3.8464    0.0000 O   0  0  0  0  0  0  0  0  0  0  0  0
  -10.7274    5.9672    0.0000 C   0  0  0  0  0  0  0  0  0  0  0  0
  -12.1318    5.4401    0.0000 C   0  0  0  0  0  0  0  0  0  0  0  0
  -13.2904    6.3928    0.0000 O   0  0  0  0  0  0  0  0  0  0  0  0
  -11.1265    7.4131    0.0000 N   0  0  0  0  0  0  0  0  0  0  0  0
  -11.2610    8.9071    0.0000 C   0  0  0  0  0  0  0  0  0  0  0  0
  -12.7610    8.9071    0.0000 O   0  0  0  0  0  0  0  0  0  0  0  0
  1  2  1  0
  2  3  1  0
  3  4  1  6
  3  5  1  0
  5  6  1  6
  6  7  1  0
  7  8  2  0
  7  9  1  0
  9 10  1  6
 10 11  1  0
 11 12  2  0
 12 13  1  0
 13 14  2  0
 14 15  1  0
 15 16  2  0
 16 17  1  0
 17 18  2  0
 18 19  1  0
 19 20  2  0
 14 21  1  0
 21 22  2  0
  9 23  1  0
 23 24  1  0
 24 25  2  0
 24 26  1  0
 26 27  1  6
 27 28  1  0
 28 29  1  0
 28 30  1  0
 26 31  1  0
 31 32  1  0
 32 33  2  0
 34 32  1  6
 34 35  1  0
 35 36  1  1
 36 37  2  0
 37 38  1  0
 38 39  2  0
 39 40  1  0
 40 41  2  0
 35 42  1  0
 42 43  1  0
 43 44  1  0
 44 45  1  0
 45 46  2  0
 45 47  1  0
 47 48  1  1
 48 49  1  0
 49 50  2  0
 49 51  1  0
 51 52  1  1
 52 53  1  0
 53 54  1  0
 54 55  1  0
 55 56  1  0
 56 57  2  0
 56 58  1  0
 51 59  1  0
 59 60  1  0
 60 61  2  0
 60 62  1  0
 62 63  1  1
 63 64  1  0
 64 65  1  0
 65 66  1  0
 66 67  1  0
 67 68  2  0
 67 69  1  0
 62 70  1  0
 70 71  1  0
 71 72  1  0
 71 73  2  0
 47 74  1  0
 74 75  1  0
 75 76  1  0
 76 77  1  0
 77 78  1  0
 78 79  1  1
 79 80  2  0
 79 81  1  0
 81 82  1  0
 82 83  1  6
 83 84  1  0
 84 85  1  0
 85 86  1  0
 86 87  1  0
 87 88  2  0
 87 89  1  0
 82 90  1  0
 90 91  2  0
 90 92  1  0
 92 93  1  0
 93 94  1  6
 94 95  1  0
 95 96  1  0
 96 97  1  0
 97 98  1  0
 98 99  2  0
 98100  1  0
 93101  1  0
101102  1  0
101103  2  0
 78104  1  0
104105  1  0
105106  2  0
105107  1  0
107108  1  6
108109  1  0
108110  1  0
107111  1  0
111112  1  0
112113  2  0
112114  1  0
114115  1  6
115116  1  0
116117  1  0
117118  1  0
118119  1  0
119120  2  0
119121  1  0
121122  1  6
122123  1  0
123124  2  0
123125  1  0
121126  1  0
126127  1  0
127128  2  0
127129  1  0
129130  1  6
130131  1  0
131132  2  0
132133  1  0
133134  2  0
134135  1  0
134136  1  0
136137  2  0
129138  1  0
138139  1  0
139140  2  0
139141  1  0
141142  1  6
142143  1  0
141144  1  0
144145  1  0
145146  2  0
145  5  1  0
 22 11  1  0
 44 34  1  0
118114  1  0
137131  1  0
 20 15  1  0
 41 36  1  0
M  END
>  <molecule_chembl_id>  (375) 
CHEMBL5172805

>  <canonical_smiles>  (375) 
CC[C@H](C)[C@@H]1NC(=O)[C@H](Cc2ccc(-c3ccccc3)cc2)NC(=O)[C@H](CC(C)C)NC(=O)[C@@H]2[C@@H](c3ccccc3)CCN2C(=O)[C@@H](NC(=O)[C@H](CCCNC(=N)N)NC(=O)[C@H](CCCNC(=N)N)NC(C)=O)CSSC[C@@H](C(=O)N[C@@H](CCCNC(=N)N)C(=O)N[C@@H](CCCNC(=N)N)C(N)=O)NC(=O)[C@H](C(C)C)NC(=O)[C@@H]2CCCN2C(=O)[C@H](CC(=O)O)NC(=O)[C@H](Cc2ccc(O)cc2)NC(=O)[C@H](CO)NC1=O

>  <pchembl_value_mean>  (375) 
9.0

>  <inchi>  (375) 
InChI=1S/C96H142N28O20S2/c1-8-53(6)76-89(141)118-70(48-125)85(137)115-67(46-56-31-35-60(127)36-32-56)83(135)117-69(47-74(128)129)91(143)123-42-19-28-73(123)87(139)121-75(52(4)5)88(140)119-71(86(138)113-64(26-17-40-108-95(102)103)80(132)111-62(78(97)130)24-15-38-106-93(98)99)49-145-146-50-72(120-81(133)65(27-18-41-109-96(104)105)112-79(131)63(110-54(7)126)25-16-39-107-94(100)101)92(144)124-43-37-61(59-22-13-10-14-23-59)77(124)90(142)116-66(44-51(2)3)82(134)114-68(84(136)122-76)45-55-29-33-58(34-30-55)57-20-11-9-12-21-57/h9-14,20-23,29-36,51-53,61-73,75-77,125,127H,8,15-19,24-28,37-50H2,1-7H3,(H2,97,130)(H,110,126)(H,111,132)(H,112,131)(H,113,138)(H,114,134)(H,115,137)(H,116,142)(H,117,135)(H,118,141)(H,119,140)(H,120,133)(H,121,139)(H,122,136)(H,128,129)(H4,98,99,106)(H4,100,101,107)(H4,102,103,108)(H4,104,105,109)/t53-,61+,62-,63-,64-,65-,66-,67-,68-,69-,70-,71-,72-,73-,75-,76-,77-/m0/s1

$$$$

     RDKit          2D

 47 52  0  0  0  0  0  0  0  0999 V2000
   13.8919   -5.5998    0.0000 C   0  0  0  0  0  0  0  0  0  0  0  0
   12.4113   -5.8404    0.0000 C   0  0  0  0  0  0  0  0  0  0  0  0
   11.4626   -4.6785    0.0000 C   0  0  0  0  0  0  0  0  0  0  0  0
   11.9945   -3.2760    0.0000 O   0  0  0  0  0  0  0  0  0  0  0  0
    9.9821   -4.9191    0.0000 N   0  0  0  0  0  0  0  0  0  0  0  0
    9.4501   -6.3216    0.0000 C   0  0  0  0  0  0  0  0  0  0  0  0
    7.9696   -6.5622    0.0000 C   0  0  0  0  0  0  0  0  0  0  0  0
    7.4377   -7.9648    0.0000 C   0  0  0  0  0  0  0  0  0  0  0  0
    7.0209   -5.4003    0.0000 N   0  0  0  0  0  0  0  0  0  0  0  0
    5.5403   -5.6410    0.0000 C   0  0  0  0  0  0  0  0  0  0  0  0
    5.0084   -7.0435    0.0000 N   0  0  0  0  0  0  0  0  0  0  0  0
    3.5278   -7.2841    0.0000 C   0  0  0  0  0  0  0  0  0  0  0  0
    3.3511   -8.7736    0.0000 O   0  0  0  0  0  0  0  0  0  0  0  0
    2.5792   -6.1222    0.0000 N   0  0  0  0  0  0  0  0  0  0  0  0
    3.1111   -4.7197    0.0000 C   0  0  0  0  0  0  0  0  0  0  0  0
    2.9303   -3.2306    0.0000 N   0  0  0  0  0  0  0  0  0  0  0  0
    2.0782   -1.9961    0.0000 C   0  0  0  0  0  0  0  0  0  0  0  0
    3.9039   -1.9737    0.0000 C   0  0  0  0  0  0  0  0  0  0  0  0
    4.2833   -0.5224    0.0000 Cl  0  0  0  0  0  0  0  0  0  0  0  0
    4.9710   -3.0278    0.0000 C   0  0  0  0  0  0  0  0  0  0  0  0
    4.5917   -4.4790    0.0000 C   0  0  0  0  0  0  0  0  0  0  0  0
    0.7500   -1.2990    0.0000 C   0  0  0  0  0  0  0  0  0  0  0  0
    1.5000    0.0000    0.0000 C   0  0  0  0  0  0  0  0  0  0  0  0
    3.0000    0.0000    0.0000 F   0  0  0  0  0  0  0  0  0  0  0  0
    0.7500    1.2990    0.0000 C   0  0  0  0  0  0  0  0  0  0  0  0
   -0.7500    1.2990    0.0000 C   0  0  0  0  0  0  0  0  0  0  0  0
   -1.5000    0.0000    0.0000 C   0  0  0  0  0  0  0  0  0  0  0  0
   -0.7500   -1.2990    0.0000 C   0  0  0  0  0  0  0  0  0  0  0  0
   -2.0782   -1.9961    0.0000 O   0  0  0  0  0  0  0  0  0  0  0  0
   -2.9303   -3.2306    0.0000 C   0  0  0  0  0  0  0  0  0  0  0  0
   -3.1111   -4.7197    0.0000 C   0  0  0  0  0  0  0  0  0  0  0  0
   -4.4393   -4.0226    0.0000 F   0  0  0  0  0  0  0  0  0  0  0  0
   -4.2339   -5.7143    0.0000 F   0  0  0  0  0  0  0  0  0  0  0  0
   -2.5792   -6.1222    0.0000 C   0  0  0  0  0  0  0  0  0  0  0  0
   -1.4564   -7.1169    0.0000 O   0  0  0  0  0  0  0  0  0  0  0  0
   -0.0000   -7.4758    0.0000 C   0  0  0  0  0  0  0  0  0  0  0  0
   -0.4173   -8.9166    0.0000 C   0  0  0  0  0  0  0  0  0  0  0  0
    0.6218   -9.9984    0.0000 C   0  0  0  0  0  0  0  0  0  0  0  0
    2.0782   -9.6395    0.0000 N   0  0  0  0  0  0  0  0  0  0  0  0
    2.4955   -8.1987    0.0000 C   0  0  0  0  0  0  0  0  0  0  0  0
    3.9519   -7.8397    0.0000 C   0  0  0  0  0  0  0  0  0  0  0  0
    4.9910   -8.9215    0.0000 C   0  0  0  0  0  0  0  0  0  0  0  0
    4.3692   -6.3989    0.0000 C   0  0  0  0  0  0  0  0  0  0  0  0
    1.4564   -7.1169    0.0000 C   0  0  0  0  0  0  0  0  0  0  0  0
    7.5528   -3.9978    0.0000 C   0  0  0  0  0  0  0  0  0  0  0  0
    9.0334   -3.7572    0.0000 C   0  0  0  0  0  0  0  0  0  0  0  0
    9.5653   -2.3547    0.0000 C   0  0  0  0  0  0  0  0  0  0  0  0
  1  2  2  0
  2  3  1  0
  3  4  2  0
  3  5  1  0
  5  6  1  0
  6  7  1  0
  7  8  1  6
  7  9  1  0
  9 10  1  0
 10 11  2  0
 11 12  1  0
 12 13  2  0
 12 14  1  0
 14 15  1  0
 15 16  2  0
 16 17  1  0
 17 18  2  0
 18 19  1  0
 18 20  1  0
 20 21  2  0
 17 22  1  0
 22 23  2  0
 23 24  1  0
 23 25  1  0
 25 26  2  0
 26 27  1  0
 27 28  2  0
 28 29  1  0
 29 30  1  0
 30 31  1  0
 31 32  1  0
 31 33  1  0
 31 34  1  0
 34 35  1  0
 35 36  1  0
 36 37  2  0
 37 38  1  0
 38 39  2  0
 39 40  1  0
 40 41  1  0
 41 42  1  0
 41 43  1  0
 40 44  2  0
  9 45  1  0
 45 46  1  0
 46 47  1  1
 46  5  1  0
 21 10  1  0
 28 22  1  0
 44 36  1  0
 44 14  1  0
 21 15  1  0
M  END
>  <molecule_chembl_id>  (376) 
CHEMBL4879271

>  <canonical_smiles>  (376) 
C=CC(=O)N1C[C@H](C)N(c2nc(=O)n3c4nc(c(Cl)cc24)-c2c(F)cccc2OCC(F)(F)COc2ccnc(C(C)C)c2-3)C[C@H]1C

>  <pchembl_value_mean>  (376) 
9.04

>  <inchi>  (376) 
InChI=1S/C33H32ClF3N6O4/c1-6-25(44)41-13-19(5)42(14-18(41)4)30-20-12-21(34)28-26-22(35)8-7-9-23(26)46-15-33(36,37)16-47-24-10-11-38-27(17(2)3)29(24)43(31(20)39-28)32(45)40-30/h6-12,17-19H,1,13-16H2,2-5H3/t18-,19+/m1/s1

$$$$

     RDKit          2D

 42 49  0  0  0  0  0  0  0  0999 V2000
   -1.5000   -5.1962    0.0000 O   0  0  0  0  0  0  0  0  0  0  0  0
   -0.7500   -3.8971    0.0000 C   0  0  0  0  0  0  0  0  0  0  0  0
    0.7500   -3.8971    0.0000 C   0  0  0  0  0  0  0  0  0  0  0  0
    1.5000   -2.5981    0.0000 C   0  0  0  0  0  0  0  0  0  0  0  0
    3.0000   -2.5981    0.0000 N   0  0  0  0  0  0  0  0  0  0  0  0
    3.7500   -1.2990    0.0000 C   0  0  0  0  0  0  0  0  0  0  0  0
    5.2500   -1.2990    0.0000 C   0  0  0  0  0  0  0  0  0  0  0  0
    6.0000   -2.5981    0.0000 C   0  0  0  0  0  0  0  0  0  0  0  0
    5.2500   -3.8971    0.0000 C   0  0  0  0  0  0  0  0  0  0  0  0
    6.0000   -5.1962    0.0000 N   0  0  0  0  0  0  0  0  0  0  0  0
    7.5000   -5.1962    0.0000 C   0  0  0  0  0  0  0  0  0  0  0  0
    8.2500   -6.4952    0.0000 O   0  0  0  0  0  0  0  0  0  0  0  0
    7.5000   -7.7942    0.0000 C   0  0  0  0  0  0  0  0  0  0  0  0
    8.2500   -9.0933    0.0000 C   0  0  0  0  0  0  0  0  0  0  0  0
    9.6595   -8.5802    0.0000 C   0  0  0  0  0  0  0  0  0  0  0  0
   10.8086   -9.5444    0.0000 N   0  0  0  0  0  0  0  0  0  0  0  0
   12.2640   -9.1815    0.0000 C   0  0  0  0  0  0  0  0  0  0  0  0
   13.0589  -10.4536    0.0000 C   0  0  0  0  0  0  0  0  0  0  0  0
   12.0947  -11.6027    0.0000 C   0  0  0  0  0  0  0  0  0  0  0  0
   12.4576  -13.0581    0.0000 F   0  0  0  0  0  0  0  0  0  0  0  0
   10.7040  -11.0408    0.0000 C   0  0  0  0  0  0  0  0  0  0  0  0
    8.5105  -10.5705    0.0000 C   0  0  0  0  0  0  0  0  0  0  0  0
    7.1009  -10.0574    0.0000 C   0  0  0  0  0  0  0  0  0  0  0  0
    8.2500   -3.8971    0.0000 N   0  0  0  0  0  0  0  0  0  0  0  0
    7.5000   -2.5981    0.0000 C   0  0  0  0  0  0  0  0  0  0  0  0
    8.2500   -1.2990    0.0000 N   0  0  0  0  0  0  0  0  0  0  0  0
    9.7500   -1.2990    0.0000 C   0  0  0  0  0  0  0  0  0  0  0  0
   10.5000    0.0000    0.0000 C   0  0  0  0  0  0  0  0  0  0  0  0
   10.8119    1.4672    0.0000 C   0  0  0  0  0  0  0  0  0  0  0  0
    9.5128    2.2172    0.0000 C   0  0  0  0  0  0  0  0  0  0  0  0
    8.3981    1.2135    0.0000 C   0  0  0  0  0  0  0  0  0  0  0  0
    7.5000    0.0000    0.0000 C   0  0  0  0  0  0  0  0  0  0  0  0
    9.0082   -0.1568    0.0000 N   0  0  0  0  0  0  0  0  0  0  0  0
    3.7500   -3.8971    0.0000 C   0  0  0  0  0  0  0  0  0  0  0  0
    0.7500   -1.2990    0.0000 C   0  0  0  0  0  0  0  0  0  0  0  0
    1.5000    0.0000    0.0000 C   0  0  0  0  0  0  0  0  0  0  0  0
    3.0000    0.0000    0.0000 I   0  0  0  0  0  0  0  0  0  0  0  0
    0.7500    1.2990    0.0000 C   0  0  0  0  0  0  0  0  0  0  0  0
   -0.7500    1.2990    0.0000 C   0  0  0  0  0  0  0  0  0  0  0  0
   -1.5000    0.0000    0.0000 C   0  0  0  0  0  0  0  0  0  0  0  0
   -0.7500   -1.2990    0.0000 C   0  0  0  0  0  0  0  0  0  0  0  0
   -1.5000   -2.5981    0.0000 C   0  0  0  0  0  0  0  0  0  0  0  0
  1  2  1  0
  2  3  2  0
  3  4  1  0
  4  5  1  0
  5  6  1  0
  6  7  1  0
  7  8  1  0
  8  9  2  0
  9 10  1  0
 10 11  2  0
 11 12  1  0
 12 13  1  0
 13 14  1  0
 14 15  1  0
 15 16  1  0
 16 17  1  0
 17 18  1  0
 18 19  1  0
 19 20  1  1
 19 21  1  0
 14 22  1  0
 22 23  1  0
 11 24  1  0
 24 25  2  0
 25 26  1  0
 26 27  1  0
 27 28  1  0
 28 29  1  0
 29 30  1  0
 30 31  1  0
 31 32  1  0
 31 33  1  0
  9 34  1  0
  4 35  2  0
 35 36  1  0
 36 37  1  0
 36 38  2  0
 38 39  1  0
 39 40  2  0
 40 41  1  0
 41 42  2  0
 42  2  1  0
 34  5  1  0
 41 35  1  0
 25  8  1  0
 32 26  1  0
 23 14  1  0
 33 28  1  0
 21 16  1  0
M  END
>  <molecule_chembl_id>  (377) 
CHEMBL4876274

>  <canonical_smiles>  (377) 
Oc1cc(N2CCc3c(nc(OCC4(CN5CC[C@@H](F)C5)CC4)nc3N3CC4CCC(C3)N4)C2)c2c(I)cccc2c1

>  <pchembl_value_mean>  (377) 
9.05

>  <inchi>  (377) 
InChI=1S/C32H38FIN6O2/c33-21-6-10-38(14-21)18-32(8-9-32)19-42-31-36-27-17-39(28-13-24(41)12-20-2-1-3-26(34)29(20)28)11-7-25(27)30(37-31)40-15-22-4-5-23(16-40)35-22/h1-3,12-13,21-23,35,41H,4-11,14-19H2/t21-,22?,23?/m1/s1

$$$$

     RDKit          2D

 44 51  0  0  0  0  0  0  0  0999 V2000
    3.7500   -1.2990    0.0000 C   0  0  0  0  0  0  0  0  0  0  0  0
    3.0000    0.0000    0.0000 C   0  0  0  0  0  0  0  0  0  0  0  0
    1.5000    0.0000    0.0000 C   0  0  0  0  0  0  0  0  0  0  0  0
    0.7500   -1.2990    0.0000 C   0  0  0  0  0  0  0  0  0  0  0  0
    1.5000   -2.5981    0.0000 F   0  0  0  0  0  0  0  0  0  0  0  0
   -0.7500   -1.2990    0.0000 C   0  0  0  0  0  0  0  0  0  0  0  0
   -1.5000    0.0000    0.0000 C   0  0  0  0  0  0  0  0  0  0  0  0
   -0.7500    1.2990    0.0000 C   0  0  0  0  0  0  0  0  0  0  0  0
   -1.5000    2.5981    0.0000 C   0  0  0  0  0  0  0  0  0  0  0  0
   -0.7500    3.8971    0.0000 C   0  0  0  0  0  0  0  0  0  0  0  0
   -1.5000    5.1962    0.0000 O   0  0  0  0  0  0  0  0  0  0  0  0
    0.7500    3.8971    0.0000 C   0  0  0  0  0  0  0  0  0  0  0  0
    1.5000    2.5981    0.0000 C   0  0  0  0  0  0  0  0  0  0  0  0
    3.0000    2.5981    0.0000 C   0  0  0  0  0  0  0  0  0  0  0  0
    3.7500    1.2990    0.0000 N   0  0  0  0  0  0  0  0  0  0  0  0
    5.2500    1.2990    0.0000 C   0  0  0  0  0  0  0  0  0  0  0  0
    6.0000    2.5981    0.0000 C   0  0  0  0  0  0  0  0  0  0  0  0
    7.5000    2.5981    0.0000 C   0  0  0  0  0  0  0  0  0  0  0  0
    8.2500    1.2990    0.0000 N   0  0  0  0  0  0  0  0  0  0  0  0
    9.7500    1.2990    0.0000 C   0  0  0  0  0  0  0  0  0  0  0  0
   10.5000   -0.0000    0.0000 C   0  0  0  0  0  0  0  0  0  0  0  0
   10.8119   -1.4672    0.0000 C   0  0  0  0  0  0  0  0  0  0  0  0
    9.5128   -2.2172    0.0000 C   0  0  0  0  0  0  0  0  0  0  0  0
    8.3981   -1.2135    0.0000 C   0  0  0  0  0  0  0  0  0  0  0  0
    7.5000   -0.0000    0.0000 C   0  0  0  0  0  0  0  0  0  0  0  0
    9.0082    0.1568    0.0000 N   0  0  0  0  0  0  0  0  0  0  0  0
    8.2500    3.8971    0.0000 N   0  0  0  0  0  0  0  0  0  0  0  0
    7.5000    5.1962    0.0000 C   0  0  0  0  0  0  0  0  0  0  0  0
    8.2500    6.4952    0.0000 O   0  0  0  0  0  0  0  0  0  0  0  0
    9.7500    6.4952    0.0000 C   0  0  0  0  0  0  0  0  0  0  0  0
   10.5000    7.7942    0.0000 C   0  0  0  0  0  0  0  0  0  0  0  0
    9.0328    8.1061    0.0000 C   0  0  0  0  0  0  0  0  0  0  0  0
    8.8760    9.5979    0.0000 C   0  0  0  0  0  0  0  0  0  0  0  0
   10.2463   10.2080    0.0000 C   0  0  0  0  0  0  0  0  0  0  0  0
   11.2500    9.0933    0.0000 N   0  0  0  0  0  0  0  0  0  0  0  0
   12.7172    8.7814    0.0000 C   0  0  0  0  0  0  0  0  0  0  0  0
   12.8740    7.2896    0.0000 C   0  0  0  0  0  0  0  0  0  0  0  0
   14.1731    6.5396    0.0000 F   0  0  0  0  0  0  0  0  0  0  0  0
   11.5037    6.6795    0.0000 C   0  0  0  0  0  0  0  0  0  0  0  0
    6.0000    5.1962    0.0000 N   0  0  0  0  0  0  0  0  0  0  0  0
    5.2500    3.8971    0.0000 C   0  0  0  0  0  0  0  0  0  0  0  0
    3.7500    3.8971    0.0000 C   0  0  0  0  0  0  0  0  0  0  0  0
    3.0000    5.1962    0.0000 F   0  0  0  0  0  0  0  0  0  0  0  0
    0.7500    1.2990    0.0000 C   0  0  0  0  0  0  0  0  0  0  0  0
  1  2  1  0
  2  3  1  0
  3  4  2  0
  4  5  1  0
  4  6  1  0
  6  7  2  0
  7  8  1  0
  8  9  2  0
  9 10  1  0
 10 11  1  0
 10 12  2  0
 12 13  1  0
 13 14  1  0
 14 15  2  0
 15 16  1  0
 16 17  2  0
 17 18  1  0
 18 19  1  0
 19 20  1  0
 20 21  1  0
 21 22  1  0
 22 23  1  0
 23 24  1  0
 24 25  1  0
 24 26  1  0
 18 27  2  0
 27 28  1  0
 28 29  1  0
 29 30  1  0
 31 30  1  1
 31 32  1  0
 32 33  1  0
 33 34  1  0
 34 35  1  0
 35 36  1  0
 36 37  1  0
 37 38  1  6
 37 39  1  0
 28 40  2  0
 40 41  1  0
 41 42  2  0
 42 43  1  0
 13 44  2  0
 44  3  1  0
 44  8  1  0
 42 14  1  0
 41 17  1  0
 25 19  1  0
 35 31  1  0
 26 21  1  0
 39 31  1  0
M  END
>  <molecule_chembl_id>  (378) 
CHEMBL4863371

>  <canonical_smiles>  (378) 
CCc1c(F)ccc2cc(O)cc(-c3ncc4c(N5CC6CCC(C5)N6)nc(OC[C@@]56CCCN5C[C@H](F)C6)nc4c3F)c12

>  <pchembl_value_mean>  (378) 
9.1

>  <inchi>  (378) 
InChI=1S/C33H35F3N6O2/c1-2-23-26(35)7-4-18-10-22(43)11-24(27(18)23)29-28(36)30-25(13-37-29)31(41-15-20-5-6-21(16-41)38-20)40-32(39-30)44-17-33-8-3-9-42(33)14-19(34)12-33/h4,7,10-11,13,19-21,38,43H,2-3,5-6,8-9,12,14-17H2,1H3/t19-,20?,21?,33+/m1/s1

$$$$

     RDKit          2D

 42 49  0  0  0  0  0  0  0  0999 V2000
   -1.5000   -5.1962    0.0000 O   0  0  0  0  0  0  0  0  0  0  0  0
   -0.7500   -3.8971    0.0000 C   0  0  0  0  0  0  0  0  0  0  0  0
    0.7500   -3.8971    0.0000 C   0  0  0  0  0  0  0  0  0  0  0  0
    1.5000   -2.5981    0.0000 C   0  0  0  0  0  0  0  0  0  0  0  0
    3.0000   -2.5981    0.0000 N   0  0  0  0  0  0  0  0  0  0  0  0
    3.7500   -1.2990    0.0000 C   0  0  0  0  0  0  0  0  0  0  0  0
    5.2500   -1.2990    0.0000 C   0  0  0  0  0  0  0  0  0  0  0  0
    6.0000   -2.5981    0.0000 C   0  0  0  0  0  0  0  0  0  0  0  0
    5.2500   -3.8971    0.0000 C   0  0  0  0  0  0  0  0  0  0  0  0
    6.0000   -5.1962    0.0000 N   0  0  0  0  0  0  0  0  0  0  0  0
    7.5000   -5.1962    0.0000 C   0  0  0  0  0  0  0  0  0  0  0  0
    8.2500   -6.4952    0.0000 O   0  0  0  0  0  0  0  0  0  0  0  0
    7.5000   -7.7942    0.0000 C   0  0  0  0  0  0  0  0  0  0  0  0
    8.2500   -9.0933    0.0000 C   0  0  0  0  0  0  0  0  0  0  0  0
    9.6595   -8.5802    0.0000 C   0  0  0  0  0  0  0  0  0  0  0  0
   10.8086   -9.5444    0.0000 N   0  0  0  0  0  0  0  0  0  0  0  0
   10.5481  -11.0216    0.0000 C   0  0  0  0  0  0  0  0  0  0  0  0
   11.6972  -11.9858    0.0000 C   0  0  0  0  0  0  0  0  0  0  0  0
   13.1067  -11.4728    0.0000 O   0  0  0  0  0  0  0  0  0  0  0  0
   13.3672   -9.9956    0.0000 C   0  0  0  0  0  0  0  0  0  0  0  0
   12.2181   -9.0314    0.0000 C   0  0  0  0  0  0  0  0  0  0  0  0
    8.5105  -10.5705    0.0000 C   0  0  0  0  0  0  0  0  0  0  0  0
    7.1009  -10.0574    0.0000 C   0  0  0  0  0  0  0  0  0  0  0  0
    8.2500   -3.8971    0.0000 N   0  0  0  0  0  0  0  0  0  0  0  0
    7.5000   -2.5981    0.0000 C   0  0  0  0  0  0  0  0  0  0  0  0
    8.2500   -1.2990    0.0000 N   0  0  0  0  0  0  0  0  0  0  0  0
    9.7500   -1.2990    0.0000 C   0  0  0  0  0  0  0  0  0  0  0  0
   10.5000    0.0000    0.0000 C   0  0  0  0  0  0  0  0  0  0  0  0
   10.8119    1.4672    0.0000 C   0  0  0  0  0  0  0  0  0  0  0  0
    9.5128    2.2172    0.0000 C   0  0  0  0  0  0  0  0  0  0  0  0
    8.3981    1.2135    0.0000 C   0  0  0  0  0  0  0  0  0  0  0  0
    7.5000    0.0000    0.0000 C   0  0  0  0  0  0  0  0  0  0  0  0
    9.0082   -0.1568    0.0000 N   0  0  0  0  0  0  0  0  0  0  0  0
    3.7500   -3.8971    0.0000 C   0  0  0  0  0  0  0  0  0  0  0  0
    0.7500   -1.2990    0.0000 C   0  0  0  0  0  0  0  0  0  0  0  0
    1.5000    0.0000    0.0000 C   0  0  0  0  0  0  0  0  0  0  0  0
    3.0000    0.0000    0.0000 I   0  0  0  0  0  0  0  0  0  0  0  0
    0.7500    1.2990    0.0000 C   0  0  0  0  0  0  0  0  0  0  0  0
   -0.7500    1.2990    0.0000 C   0  0  0  0  0  0  0  0  0  0  0  0
   -1.5000    0.0000    0.0000 C   0  0  0  0  0  0  0  0  0  0  0  0
   -0.7500   -1.2990    0.0000 C   0  0  0  0  0  0  0  0  0  0  0  0
   -1.5000   -2.5981    0.0000 C   0  0  0  0  0  0  0  0  0  0  0  0
  1  2  1  0
  2  3  2  0
  3  4  1  0
  4  5  1  0
  5  6  1  0
  6  7  1  0
  7  8  1  0
  8  9  2  0
  9 10  1  0
 10 11  2  0
 11 12  1  0
 12 13  1  0
 13 14  1  0
 14 15  1  0
 15 16  1  0
 16 17  1  0
 17 18  1  0
 18 19  1  0
 19 20  1  0
 20 21  1  0
 14 22  1  0
 22 23  1  0
 11 24  1  0
 24 25  2  0
 25 26  1  0
 26 27  1  0
 27 28  1  0
 28 29  1  0
 29 30  1  0
 30 31  1  0
 31 32  1  0
 31 33  1  0
  9 34  1  0
  4 35  2  0
 35 36  1  0
 36 37  1  0
 36 38  2  0
 38 39  1  0
 39 40  2  0
 40 41  1  0
 41 42  2  0
 42  2  1  0
 34  5  1  0
 41 35  1  0
 25  8  1  0
 32 26  1  0
 23 14  1  0
 33 28  1  0
 21 16  1  0
M  END
>  <molecule_chembl_id>  (379) 
CHEMBL4869200

>  <canonical_smiles>  (379) 
Oc1cc(N2CCc3c(nc(OCC4(CN5CCOCC5)CC4)nc3N3CC4CCC(C3)N4)C2)c2c(I)cccc2c1

>  <pchembl_value_mean>  (379) 
9.15

>  <inchi>  (379) 
InChI=1S/C32H39IN6O3/c33-26-3-1-2-21-14-24(40)15-28(29(21)26)38-9-6-25-27(18-38)35-31(36-30(25)39-16-22-4-5-23(17-39)34-22)42-20-32(7-8-32)19-37-10-12-41-13-11-37/h1-3,14-15,22-23,34,40H,4-13,16-20H2

$$$$

     RDKit          2D

 39 45  0  0  0  0  0  0  0  0999 V2000
   -1.7123   -9.9008    0.0000 C   0  0  0  0  0  0  0  0  0  0  0  0
   -2.8614   -8.9366    0.0000 N   0  0  0  0  0  0  0  0  0  0  0  0
   -4.2709   -9.4496    0.0000 C   0  0  0  0  0  0  0  0  0  0  0  0
   -2.6009   -7.4594    0.0000 C   0  0  0  0  0  0  0  0  0  0  0  0
   -3.7500   -6.4952    0.0000 C   0  0  0  0  0  0  0  0  0  0  0  0
   -3.0000   -5.1962    0.0000 C   0  0  0  0  0  0  0  0  0  0  0  0
   -1.5000   -5.1962    0.0000 O   0  0  0  0  0  0  0  0  0  0  0  0
   -0.7500   -3.8971    0.0000 C   0  0  0  0  0  0  0  0  0  0  0  0
   -1.5000   -2.5981    0.0000 N   0  0  0  0  0  0  0  0  0  0  0  0
   -0.7500   -1.2990    0.0000 C   0  0  0  0  0  0  0  0  0  0  0  0
    0.7500   -1.2990    0.0000 C   0  0  0  0  0  0  0  0  0  0  0  0
    1.5000   -2.5981    0.0000 C   0  0  0  0  0  0  0  0  0  0  0  0
    3.0000   -2.5981    0.0000 N   0  0  0  0  0  0  0  0  0  0  0  0
    3.7500   -3.8971    0.0000 C   0  0  0  0  0  0  0  0  0  0  0  0
    5.2500   -3.8971    0.0000 C   0  0  0  0  0  0  0  0  0  0  0  0
    6.6766   -3.4336    0.0000 C   0  0  0  0  0  0  0  0  0  0  0  0
    6.6766   -1.9336    0.0000 C   0  0  0  0  0  0  0  0  0  0  0  0
    5.2500   -1.4701    0.0000 C   0  0  0  0  0  0  0  0  0  0  0  0
    3.7500   -1.2990    0.0000 C   0  0  0  0  0  0  0  0  0  0  0  0
    4.3683   -2.6836    0.0000 N   0  0  0  0  0  0  0  0  0  0  0  0
    0.7500   -3.8971    0.0000 N   0  0  0  0  0  0  0  0  0  0  0  0
    1.5000    0.0000    0.0000 C   0  0  0  0  0  0  0  0  0  0  0  0
    0.7500    1.2990    0.0000 C   0  0  0  0  0  0  0  0  0  0  0  0
   -0.7500    1.2990    0.0000 N   0  0  0  0  0  0  0  0  0  0  0  0
   -1.5000    2.5981    0.0000 C   0  0  0  0  0  0  0  0  0  0  0  0
   -0.7500    3.8971    0.0000 C   0  0  0  0  0  0  0  0  0  0  0  0
   -1.5000    5.1962    0.0000 C   0  0  0  0  0  0  0  0  0  0  0  0
   -0.7500    6.4952    0.0000 O   0  0  0  0  0  0  0  0  0  0  0  0
   -3.0000    5.1962    0.0000 C   0  0  0  0  0  0  0  0  0  0  0  0
   -3.7500    3.8971    0.0000 C   0  0  0  0  0  0  0  0  0  0  0  0
   -5.2500    3.8971    0.0000 C   0  0  0  0  0  0  0  0  0  0  0  0
   -6.0000    2.5981    0.0000 C   0  0  0  0  0  0  0  0  0  0  0  0
   -5.2500    1.2990    0.0000 C   0  0  0  0  0  0  0  0  0  0  0  0
   -3.7500    1.2990    0.0000 C   0  0  0  0  0  0  0  0  0  0  0  0
   -3.0000    0.0000    0.0000 I   0  0  0  0  0  0  0  0  0  0  0  0
   -3.0000    2.5981    0.0000 C   0  0  0  0  0  0  0  0  0  0  0  0
   -1.5000    0.0000    0.0000 C   0  0  0  0  0  0  0  0  0  0  0  0
   -4.8991   -7.4594    0.0000 C   0  0  0  0  0  0  0  0  0  0  0  0
   -5.1595   -5.9822    0.0000 C   0  0  0  0  0  0  0  0  0  0  0  0
  1  2  1  0
  2  3  1  0
  2  4  1  0
  4  5  1  0
  5  6  1  0
  6  7  1  0
  7  8  1  0
  8  9  2  0
  9 10  1  0
 10 11  2  0
 11 12  1  0
 12 13  1  0
 13 14  1  0
 14 15  1  0
 15 16  1  0
 16 17  1  0
 17 18  1  0
 18 19  1  0
 18 20  1  0
 12 21  2  0
 11 22  1  0
 22 23  1  0
 23 24  1  0
 24 25  1  0
 25 26  2  0
 26 27  1  0
 27 28  1  0
 27 29  2  0
 29 30  1  0
 30 31  2  0
 31 32  1  0
 32 33  2  0
 33 34  1  0
 34 35  1  0
 34 36  2  0
 24 37  1  0
  5 38  1  0
 38 39  1  0
 39  5  1  0
 21  8  1  0
 36 25  1  0
 37 10  1  0
 19 13  1  0
 36 30  1  0
 20 15  1  0
M  END
>  <molecule_chembl_id>  (380) 
CHEMBL4849611

>  <canonical_smiles>  (380) 
CN(C)CC1(COc2nc3c(c(N4CC5CCC(C4)N5)n2)CCN(c2cc(O)cc4cccc(I)c24)C3)CC1

>  <pchembl_value_mean>  (380) 
9.15

>  <inchi>  (380) 
InChI=1S/C30H37IN6O2/c1-35(2)17-30(9-10-30)18-39-29-33-25-16-36(26-13-22(38)12-19-4-3-5-24(31)27(19)26)11-8-23(25)28(34-29)37-14-20-6-7-21(15-37)32-20/h3-5,12-13,20-21,32,38H,6-11,14-18H2,1-2H3

$$$$

     RDKit          2D

 43 50  0  0  0  0  0  0  0  0999 V2000
    3.0000    0.0000    0.0000 O   0  0  0  0  0  0  0  0  0  0  0  0
    1.5000    0.0000    0.0000 C   0  0  0  0  0  0  0  0  0  0  0  0
    0.7500   -1.2990    0.0000 C   0  0  0  0  0  0  0  0  0  0  0  0
   -0.7500   -1.2990    0.0000 C   0  0  0  0  0  0  0  0  0  0  0  0
   -1.5000   -2.5981    0.0000 C   0  0  0  0  0  0  0  0  0  0  0  0
   -3.0000   -2.5981    0.0000 N   0  0  0  0  0  0  0  0  0  0  0  0
   -3.7500   -3.8971    0.0000 C   0  0  0  0  0  0  0  0  0  0  0  0
   -3.0000   -5.1962    0.0000 C   0  0  0  0  0  0  0  0  0  0  0  0
   -3.7500   -6.4952    0.0000 C   0  0  0  0  0  0  0  0  0  0  0  0
   -5.2500   -6.4952    0.0000 N   0  0  0  0  0  0  0  0  0  0  0  0
   -6.0000   -7.7942    0.0000 C   0  0  0  0  0  0  0  0  0  0  0  0
   -7.5000   -7.7942    0.0000 C   0  0  0  0  0  0  0  0  0  0  0  0
   -8.9266   -7.3307    0.0000 C   0  0  0  0  0  0  0  0  0  0  0  0
   -8.9266   -5.8307    0.0000 C   0  0  0  0  0  0  0  0  0  0  0  0
   -7.5000   -5.3672    0.0000 C   0  0  0  0  0  0  0  0  0  0  0  0
   -6.0000   -5.1962    0.0000 C   0  0  0  0  0  0  0  0  0  0  0  0
   -6.6183   -6.5807    0.0000 N   0  0  0  0  0  0  0  0  0  0  0  0
   -3.0000   -7.7942    0.0000 N   0  0  0  0  0  0  0  0  0  0  0  0
   -1.5000   -7.7942    0.0000 C   0  0  0  0  0  0  0  0  0  0  0  0
   -0.7500   -9.0933    0.0000 O   0  0  0  0  0  0  0  0  0  0  0  0
   -1.5000  -10.3923    0.0000 C   0  0  0  0  0  0  0  0  0  0  0  0
   -0.7500  -11.6913    0.0000 C   0  0  0  0  0  0  0  0  0  0  0  0
    0.2537  -10.5766    0.0000 C   0  0  0  0  0  0  0  0  0  0  0  0
    1.6240  -11.1867    0.0000 C   0  0  0  0  0  0  0  0  0  0  0  0
    1.4672  -12.6785    0.0000 C   0  0  0  0  0  0  0  0  0  0  0  0
    0.0000  -12.9904    0.0000 N   0  0  0  0  0  0  0  0  0  0  0  0
   -1.0037  -14.1051    0.0000 C   0  0  0  0  0  0  0  0  0  0  0  0
   -2.3740  -13.4950    0.0000 C   0  0  0  0  0  0  0  0  0  0  0  0
   -3.6731  -14.2450    0.0000 F   0  0  0  0  0  0  0  0  0  0  0  0
   -2.2172  -12.0032    0.0000 C   0  0  0  0  0  0  0  0  0  0  0  0
   -0.7500   -6.4952    0.0000 N   0  0  0  0  0  0  0  0  0  0  0  0
   -1.5000   -5.1962    0.0000 C   0  0  0  0  0  0  0  0  0  0  0  0
   -0.7500   -3.8971    0.0000 C   0  0  0  0  0  0  0  0  0  0  0  0
    0.7500   -3.8971    0.0000 F   0  0  0  0  0  0  0  0  0  0  0  0
   -1.5000    0.0000    0.0000 C   0  0  0  0  0  0  0  0  0  0  0  0
   -3.0000    0.0000    0.0000 C   0  0  0  0  0  0  0  0  0  0  0  0
   -3.7500   -1.2990    0.0000 F   0  0  0  0  0  0  0  0  0  0  0  0
   -3.7500    1.2990    0.0000 C   0  0  0  0  0  0  0  0  0  0  0  0
   -5.2500    1.2990    0.0000 F   0  0  0  0  0  0  0  0  0  0  0  0
   -3.0000    2.5981    0.0000 C   0  0  0  0  0  0  0  0  0  0  0  0
   -1.5000    2.5981    0.0000 C   0  0  0  0  0  0  0  0  0  0  0  0
   -0.7500    1.2990    0.0000 C   0  0  0  0  0  0  0  0  0  0  0  0
    0.7500    1.2990    0.0000 C   0  0  0  0  0  0  0  0  0  0  0  0
  1  2  1  0
  2  3  2  0
  3  4  1  0
  4  5  1  0
  5  6  2  0
  6  7  1  0
  7  8  2  0
  8  9  1  0
  9 10  1  0
 10 11  1  0
 11 12  1  0
 12 13  1  0
 13 14  1  0
 14 15  1  0
 15 16  1  0
 15 17  1  0
  9 18  2  0
 18 19  1  0
 19 20  1  0
 20 21  1  0
 22 21  1  1
 22 23  1  0
 23 24  1  0
 24 25  1  0
 25 26  1  0
 26 27  1  0
 27 28  1  0
 28 29  1  6
 28 30  1  0
 19 31  2  0
 31 32  1  0
 32 33  2  0
 33 34  1  0
  4 35  2  0
 35 36  1  0
 36 37  1  0
 36 38  2  0
 38 39  1  0
 38 40  1  0
 40 41  2  0
 41 42  1  0
 42 43  2  0
 43  2  1  0
 33  5  1  0
 42 35  1  0
 32  8  1  0
 16 10  1  0
 26 22  1  0
 17 12  1  0
 30 22  1  0
M  END
>  <molecule_chembl_id>  (381) 
CHEMBL4874297

>  <canonical_smiles>  (381) 
Oc1cc(-c2ncc3c(N4CC5CCC(C4)N5)nc(OC[C@@]45CCCN4C[C@H](F)C5)nc3c2F)c2c(F)c(F)ccc2c1

>  <pchembl_value_mean>  (381) 
9.22

>  <inchi>  (381) 
InChI=1S/C31H30F4N6O2/c32-17-10-31(6-1-7-41(31)12-17)15-43-30-38-28-22(29(39-30)40-13-18-3-4-19(14-40)37-18)11-36-27(26(28)35)21-9-20(42)8-16-2-5-23(33)25(34)24(16)21/h2,5,8-9,11,17-19,37,42H,1,3-4,6-7,10,12-15H2/t17-,18?,19?,31+/m1/s1

$$$$

     RDKit          2D

 43 50  0  0  0  0  0  0  0  0999 V2000
    6.4721   -4.6915    0.0000 C   0  0  0  0  0  0  0  0  0  0  0  0
    5.1731   -3.9415    0.0000 O   0  0  0  0  0  0  0  0  0  0  0  0
    3.8740   -4.6915    0.0000 C   0  0  0  0  0  0  0  0  0  0  0  0
    3.7172   -6.1833    0.0000 C   0  0  0  0  0  0  0  0  0  0  0  0
    2.2500   -6.4952    0.0000 N   0  0  0  0  0  0  0  0  0  0  0  0
    1.2463   -7.6099    0.0000 C   0  0  0  0  0  0  0  0  0  0  0  0
   -0.1240   -6.9998    0.0000 C   0  0  0  0  0  0  0  0  0  0  0  0
    0.0328   -5.5080    0.0000 C   0  0  0  0  0  0  0  0  0  0  0  0
    1.5000   -5.1962    0.0000 C   0  0  0  0  0  0  0  0  0  0  0  0
    0.7500   -3.8971    0.0000 C   0  0  0  0  0  0  0  0  0  0  0  0
    1.5000   -2.5981    0.0000 O   0  0  0  0  0  0  0  0  0  0  0  0
    0.7500   -1.2990    0.0000 C   0  0  0  0  0  0  0  0  0  0  0  0
    1.5000    0.0000    0.0000 N   0  0  0  0  0  0  0  0  0  0  0  0
    0.7500    1.2990    0.0000 C   0  0  0  0  0  0  0  0  0  0  0  0
    1.5000    2.5981    0.0000 N   0  0  0  0  0  0  0  0  0  0  0  0
    3.0000    2.5981    0.0000 C   0  0  0  0  0  0  0  0  0  0  0  0
    3.7500    3.8971    0.0000 C   0  0  0  0  0  0  0  0  0  0  0  0
    4.0619    5.3643    0.0000 C   0  0  0  0  0  0  0  0  0  0  0  0
    2.7628    6.1143    0.0000 C   0  0  0  0  0  0  0  0  0  0  0  0
    1.6481    5.1106    0.0000 C   0  0  0  0  0  0  0  0  0  0  0  0
    0.7500    3.8971    0.0000 C   0  0  0  0  0  0  0  0  0  0  0  0
    2.2582    3.7403    0.0000 N   0  0  0  0  0  0  0  0  0  0  0  0
   -0.7500    1.2990    0.0000 C   0  0  0  0  0  0  0  0  0  0  0  0
   -1.5000    2.5981    0.0000 C   0  0  0  0  0  0  0  0  0  0  0  0
   -3.0000    2.5981    0.0000 N   0  0  0  0  0  0  0  0  0  0  0  0
   -3.7500    1.2990    0.0000 C   0  0  0  0  0  0  0  0  0  0  0  0
   -5.2500    1.2990    0.0000 C   0  0  0  0  0  0  0  0  0  0  0  0
   -6.0000   -0.0000    0.0000 C   0  0  0  0  0  0  0  0  0  0  0  0
   -7.5000   -0.0000    0.0000 C   0  0  0  0  0  0  0  0  0  0  0  0
   -8.2500   -1.2990    0.0000 O   0  0  0  0  0  0  0  0  0  0  0  0
   -8.2500    1.2990    0.0000 C   0  0  0  0  0  0  0  0  0  0  0  0
   -7.5000    2.5981    0.0000 C   0  0  0  0  0  0  0  0  0  0  0  0
   -8.2500    3.8971    0.0000 C   0  0  0  0  0  0  0  0  0  0  0  0
   -7.5000    5.1962    0.0000 C   0  0  0  0  0  0  0  0  0  0  0  0
   -6.0000    5.1962    0.0000 C   0  0  0  0  0  0  0  0  0  0  0  0
   -5.2500    3.8971    0.0000 C   0  0  0  0  0  0  0  0  0  0  0  0
   -3.7500    3.8971    0.0000 F   0  0  0  0  0  0  0  0  0  0  0  0
   -6.0000    2.5981    0.0000 C   0  0  0  0  0  0  0  0  0  0  0  0
   -3.0000    0.0000    0.0000 C   0  0  0  0  0  0  0  0  0  0  0  0
   -3.7500   -1.2990    0.0000 F   0  0  0  0  0  0  0  0  0  0  0  0
   -1.5000    0.0000    0.0000 C   0  0  0  0  0  0  0  0  0  0  0  0
   -0.7500   -1.2990    0.0000 N   0  0  0  0  0  0  0  0  0  0  0  0
    2.5037   -4.0814    0.0000 C   0  0  0  0  0  0  0  0  0  0  0  0
  1  2  1  0
  2  3  1  0
  3  4  1  0
  4  5  1  0
  5  6  1  0
  6  7  1  0
  7  8  1  0
  8  9  1  0
  9 10  1  0
 10 11  1  0
 11 12  1  0
 12 13  2  0
 13 14  1  0
 14 15  1  0
 15 16  1  0
 16 17  1  0
 17 18  1  0
 18 19  1  0
 19 20  1  0
 20 21  1  0
 20 22  1  0
 14 23  2  0
 23 24  1  0
 24 25  2  0
 25 26  1  0
 26 27  1  0
 27 28  2  0
 28 29  1  0
 29 30  1  0
 29 31  2  0
 31 32  1  0
 32 33  2  0
 33 34  1  0
 34 35  2  0
 35 36  1  0
 36 37  1  0
 36 38  2  0
 26 39  2  0
 39 40  1  0
 39 41  1  0
 41 42  2  0
  9 43  1  0
 43  3  1  0
  9  5  1  0
 42 12  1  0
 21 15  1  0
 41 23  1  0
 22 17  1  0
 38 27  1  0
 38 32  1  0
M  END
>  <molecule_chembl_id>  (382) 
CHEMBL4876243

>  <canonical_smiles>  (382) 
COC1CN2CCCC2(COc2nc(N3CC4CCC(C3)N4)c3cnc(-c4cc(O)cc5cccc(F)c45)c(F)c3n2)C1

>  <pchembl_value_mean>  (382) 
9.22

>  <inchi>  (382) 
InChI=1S/C32H34F2N6O3/c1-42-22-12-32(8-3-9-40(32)16-22)17-43-31-37-29-24(30(38-31)39-14-19-6-7-20(15-39)36-19)13-35-28(27(29)34)23-11-21(41)10-18-4-2-5-25(33)26(18)23/h2,4-5,10-11,13,19-20,22,36,41H,3,6-9,12,14-17H2,1H3

$$$$

     RDKit          2D

 46 51  0  0  0  0  0  0  0  0999 V2000
   13.8919   -5.5998    0.0000 C   0  0  0  0  0  0  0  0  0  0  0  0
   12.4113   -5.8404    0.0000 C   0  0  0  0  0  0  0  0  0  0  0  0
   11.4626   -4.6785    0.0000 C   0  0  0  0  0  0  0  0  0  0  0  0
   11.9945   -3.2760    0.0000 O   0  0  0  0  0  0  0  0  0  0  0  0
    9.9821   -4.9191    0.0000 N   0  0  0  0  0  0  0  0  0  0  0  0
    9.4501   -6.3216    0.0000 C   0  0  0  0  0  0  0  0  0  0  0  0
    7.9696   -6.5622    0.0000 C   0  0  0  0  0  0  0  0  0  0  0  0
    7.0209   -5.4003    0.0000 N   0  0  0  0  0  0  0  0  0  0  0  0
    5.5403   -5.6410    0.0000 C   0  0  0  0  0  0  0  0  0  0  0  0
    5.0084   -7.0435    0.0000 N   0  0  0  0  0  0  0  0  0  0  0  0
    3.5278   -7.2841    0.0000 C   0  0  0  0  0  0  0  0  0  0  0  0
    3.3511   -8.7736    0.0000 O   0  0  0  0  0  0  0  0  0  0  0  0
    2.5792   -6.1222    0.0000 N   0  0  0  0  0  0  0  0  0  0  0  0
    3.1111   -4.7197    0.0000 C   0  0  0  0  0  0  0  0  0  0  0  0
    2.9303   -3.2306    0.0000 N   0  0  0  0  0  0  0  0  0  0  0  0
    2.0782   -1.9961    0.0000 C   0  0  0  0  0  0  0  0  0  0  0  0
    3.9039   -1.9737    0.0000 C   0  0  0  0  0  0  0  0  0  0  0  0
    4.2833   -0.5224    0.0000 Cl  0  0  0  0  0  0  0  0  0  0  0  0
    4.9710   -3.0278    0.0000 C   0  0  0  0  0  0  0  0  0  0  0  0
    4.5917   -4.4790    0.0000 C   0  0  0  0  0  0  0  0  0  0  0  0
    0.7500   -1.2990    0.0000 C   0  0  0  0  0  0  0  0  0  0  0  0
    1.5000    0.0000    0.0000 C   0  0  0  0  0  0  0  0  0  0  0  0
    3.0000    0.0000    0.0000 F   0  0  0  0  0  0  0  0  0  0  0  0
    0.7500    1.2990    0.0000 C   0  0  0  0  0  0  0  0  0  0  0  0
   -0.7500    1.2990    0.0000 C   0  0  0  0  0  0  0  0  0  0  0  0
   -1.5000    0.0000    0.0000 C   0  0  0  0  0  0  0  0  0  0  0  0
   -0.7500   -1.2990    0.0000 C   0  0  0  0  0  0  0  0  0  0  0  0
   -2.0782   -1.9961    0.0000 O   0  0  0  0  0  0  0  0  0  0  0  0
   -2.9303   -3.2306    0.0000 C   0  0  0  0  0  0  0  0  0  0  0  0
   -3.1111   -4.7197    0.0000 C   0  0  0  0  0  0  0  0  0  0  0  0
   -4.4393   -4.0226    0.0000 F   0  0  0  0  0  0  0  0  0  0  0  0
   -4.2339   -5.7143    0.0000 F   0  0  0  0  0  0  0  0  0  0  0  0
   -2.5792   -6.1222    0.0000 C   0  0  0  0  0  0  0  0  0  0  0  0
   -1.4564   -7.1169    0.0000 C   0  0  0  0  0  0  0  0  0  0  0  0
   -0.0000   -7.4758    0.0000 C   0  0  0  0  0  0  0  0  0  0  0  0
   -0.4173   -8.9166    0.0000 C   0  0  0  0  0  0  0  0  0  0  0  0
    0.6218   -9.9984    0.0000 C   0  0  0  0  0  0  0  0  0  0  0  0
    2.0782   -9.6395    0.0000 N   0  0  0  0  0  0  0  0  0  0  0  0
    2.4955   -8.1987    0.0000 C   0  0  0  0  0  0  0  0  0  0  0  0
    3.9519   -7.8397    0.0000 C   0  0  0  0  0  0  0  0  0  0  0  0
    4.9910   -8.9215    0.0000 C   0  0  0  0  0  0  0  0  0  0  0  0
    4.3692   -6.3989    0.0000 C   0  0  0  0  0  0  0  0  0  0  0  0
    1.4564   -7.1169    0.0000 C   0  0  0  0  0  0  0  0  0  0  0  0
    7.5528   -3.9978    0.0000 C   0  0  0  0  0  0  0  0  0  0  0  0
    6.6041   -2.8359    0.0000 C   0  0  0  0  0  0  0  0  0  0  0  0
    9.0334   -3.7572    0.0000 C   0  0  0  0  0  0  0  0  0  0  0  0
  1  2  2  0
  2  3  1  0
  3  4  2  0
  3  5  1  0
  5  6  1  0
  6  7  1  0
  7  8  1  0
  8  9  1  0
  9 10  2  0
 10 11  1  0
 11 12  2  0
 11 13  1  0
 13 14  1  0
 14 15  2  0
 15 16  1  0
 16 17  2  0
 17 18  1  0
 17 19  1  0
 19 20  2  0
 16 21  1  0
 21 22  2  0
 22 23  1  0
 22 24  1  0
 24 25  2  0
 25 26  1  0
 26 27  2  0
 27 28  1  0
 28 29  1  0
 29 30  1  0
 30 31  1  0
 30 32  1  0
 30 33  1  0
 33 34  1  0
 34 35  1  0
 35 36  2  0
 36 37  1  0
 37 38  2  0
 38 39  1  0
 39 40  1  0
 40 41  1  0
 40 42  1  0
 39 43  2  0
  8 44  1  0
 44 45  1  1
 44 46  1  0
 46  5  1  0
 20  9  1  0
 27 21  1  0
 43 35  1  0
 43 13  1  0
 20 14  1  0
M  END
>  <molecule_chembl_id>  (383) 
CHEMBL4856277

>  <canonical_smiles>  (383) 
C=CC(=O)N1CCN(c2nc(=O)n3c4nc(c(Cl)cc24)-c2c(F)cccc2OCC(F)(F)CCc2ccnc(C(C)C)c2-3)[C@@H](C)C1

>  <pchembl_value_mean>  (383) 
9.25

>  <inchi>  (383) 
InChI=1S/C33H32ClF3N6O3/c1-5-25(44)41-13-14-42(19(4)16-41)30-21-15-22(34)28-26-23(35)7-6-8-24(26)46-17-33(36,37)11-9-20-10-12-38-27(18(2)3)29(20)43(31(21)39-28)32(45)40-30/h5-8,10,12,15,18-19H,1,9,11,13-14,16-17H2,2-4H3/t19-/m0/s1

$$$$

     RDKit          2D

 45 50  0  0  0  0  0  0  0  0999 V2000
  -13.2990   -0.7500    0.0000 C   0  0  0  0  0  0  0  0  0  0  0  0
  -11.7990   -0.7500    0.0000 C   0  0  0  0  0  0  0  0  0  0  0  0
  -11.0490   -2.0490    0.0000 C   0  0  0  0  0  0  0  0  0  0  0  0
  -11.7990   -3.3481    0.0000 O   0  0  0  0  0  0  0  0  0  0  0  0
   -9.5490   -2.0490    0.0000 N   0  0  0  0  0  0  0  0  0  0  0  0
   -8.7990   -0.7500    0.0000 C   0  0  0  0  0  0  0  0  0  0  0  0
   -7.2990   -0.7500    0.0000 C   0  0  0  0  0  0  0  0  0  0  0  0
   -6.5490    0.5490    0.0000 C   0  0  0  0  0  0  0  0  0  0  0  0
   -6.5490   -2.0490    0.0000 N   0  0  0  0  0  0  0  0  0  0  0  0
   -5.0490   -2.0490    0.0000 C   0  0  0  0  0  0  0  0  0  0  0  0
   -4.2990   -0.7500    0.0000 N   0  0  0  0  0  0  0  0  0  0  0  0
   -2.7990   -0.7500    0.0000 C   0  0  0  0  0  0  0  0  0  0  0  0
   -2.3857    0.6919    0.0000 O   0  0  0  0  0  0  0  0  0  0  0  0
   -2.0490   -2.0490    0.0000 N   0  0  0  0  0  0  0  0  0  0  0  0
   -2.7990   -3.3481    0.0000 C   0  0  0  0  0  0  0  0  0  0  0  0
   -2.7990   -4.8481    0.0000 N   0  0  0  0  0  0  0  0  0  0  0  0
   -2.0490   -6.1471    0.0000 C   0  0  0  0  0  0  0  0  0  0  0  0
   -3.9018   -5.9156    0.0000 C   0  0  0  0  0  0  0  0  0  0  0  0
   -4.4444   -7.3140    0.0000 Cl  0  0  0  0  0  0  0  0  0  0  0  0
   -4.8416   -4.7465    0.0000 C   0  0  0  0  0  0  0  0  0  0  0  0
   -4.2990   -3.3481    0.0000 C   0  0  0  0  0  0  0  0  0  0  0  0
   -0.7500   -6.8971    0.0000 C   0  0  0  0  0  0  0  0  0  0  0  0
    0.7500   -6.8971    0.0000 C   0  0  0  0  0  0  0  0  0  0  0  0
    1.5000   -8.1962    0.0000 C   0  0  0  0  0  0  0  0  0  0  0  0
    0.7500   -9.4952    0.0000 C   0  0  0  0  0  0  0  0  0  0  0  0
   -0.7500   -9.4952    0.0000 C   0  0  0  0  0  0  0  0  0  0  0  0
   -1.5000  -10.7942    0.0000 F   0  0  0  0  0  0  0  0  0  0  0  0
   -1.5000   -8.1962    0.0000 C   0  0  0  0  0  0  0  0  0  0  0  0
   -3.0000   -8.1962    0.0000 F   0  0  0  0  0  0  0  0  0  0  0  0
    2.0490   -6.1471    0.0000 O   0  0  0  0  0  0  0  0  0  0  0  0
    2.7990   -4.8481    0.0000 C   0  0  0  0  0  0  0  0  0  0  0  0
    2.7990   -3.3481    0.0000 C   0  0  0  0  0  0  0  0  0  0  0  0
    2.0490   -2.0490    0.0000 C   0  0  0  0  0  0  0  0  0  0  0  0
    0.7500   -1.2990    0.0000 C   0  0  0  0  0  0  0  0  0  0  0  0
    1.5000    0.0000    0.0000 N   0  0  0  0  0  0  0  0  0  0  0  0
    0.7500    1.2990    0.0000 C   0  0  0  0  0  0  0  0  0  0  0  0
   -0.7500    1.2990    0.0000 N   0  0  0  0  0  0  0  0  0  0  0  0
   -1.5000    0.0000    0.0000 C   0  0  0  0  0  0  0  0  0  0  0  0
   -3.0000    0.0000    0.0000 C   0  0  0  0  0  0  0  0  0  0  0  0
   -3.7500    1.2990    0.0000 C   0  0  0  0  0  0  0  0  0  0  0  0
   -3.5538   -0.5734    0.0000 C   0  0  0  0  0  0  0  0  0  0  0  0
   -0.7500   -1.2990    0.0000 C   0  0  0  0  0  0  0  0  0  0  0  0
   -7.2990   -3.3481    0.0000 C   0  0  0  0  0  0  0  0  0  0  0  0
   -8.7990   -3.3481    0.0000 C   0  0  0  0  0  0  0  0  0  0  0  0
   -9.5490   -4.6471    0.0000 C   0  0  0  0  0  0  0  0  0  0  0  0
  1  2  2  0
  2  3  1  0
  3  4  2  0
  3  5  1  0
  5  6  1  0
  6  7  1  0
  7  8  1  6
  7  9  1  0
  9 10  1  0
 10 11  2  0
 11 12  1  0
 12 13  2  0
 12 14  1  0
 14 15  1  0
 15 16  2  0
 16 17  1  0
 17 18  2  0
 18 19  1  0
 18 20  1  0
 20 21  2  0
 17 22  1  0
 22 23  2  0
 23 24  1  0
 24 25  2  0
 25 26  1  0
 26 27  1  0
 26 28  2  0
 28 29  1  0
 23 30  1  0
 30 31  1  0
 31 32  1  0
 32 33  1  0
 33 34  1  0
 34 35  2  0
 35 36  1  0
 36 37  2  0
 37 38  1  0
 38 39  1  0
 39 40  1  0
 39 41  1  0
 38 42  2  0
  9 43  1  0
 43 44  1  0
 44 45  1  1
 44  5  1  0
 21 10  1  0
 28 22  1  0
 42 34  1  0
 42 14  1  0
 21 15  1  0
M  END
>  <molecule_chembl_id>  (384) 
CHEMBL4852458

>  <canonical_smiles>  (384) 
C=CC(=O)N1C[C@H](C)N(c2nc(=O)n3c4nc(c(Cl)cc24)-c2c(ccc(F)c2F)OCCCc2ncnc(C(C)C)c2-3)C[C@H]1C

>  <pchembl_value_mean>  (384) 
9.29

>  <inchi>  (384) 
InChI=1S/C32H32ClF2N7O3/c1-6-24(43)40-13-18(5)41(14-17(40)4)30-19-12-20(33)28-25-23(10-9-21(34)26(25)35)45-11-7-8-22-29(27(16(2)3)37-15-36-22)42(31(19)38-28)32(44)39-30/h6,9-10,12,15-18H,1,7-8,11,13-14H2,2-5H3/t17-,18+/m1/s1

$$$$

     RDKit          2D

 42 49  0  0  0  0  0  0  0  0999 V2000
    3.0000    0.0000    0.0000 O   0  0  0  0  0  0  0  0  0  0  0  0
    1.5000    0.0000    0.0000 C   0  0  0  0  0  0  0  0  0  0  0  0
    0.7500   -1.2990    0.0000 C   0  0  0  0  0  0  0  0  0  0  0  0
   -0.7500   -1.2990    0.0000 C   0  0  0  0  0  0  0  0  0  0  0  0
   -1.5000   -2.5981    0.0000 C   0  0  0  0  0  0  0  0  0  0  0  0
   -3.0000   -2.5981    0.0000 N   0  0  0  0  0  0  0  0  0  0  0  0
   -3.7500   -3.8971    0.0000 C   0  0  0  0  0  0  0  0  0  0  0  0
   -3.0000   -5.1962    0.0000 C   0  0  0  0  0  0  0  0  0  0  0  0
   -3.7500   -6.4952    0.0000 C   0  0  0  0  0  0  0  0  0  0  0  0
   -5.2500   -6.4952    0.0000 N   0  0  0  0  0  0  0  0  0  0  0  0
   -6.0000   -7.7942    0.0000 C   0  0  0  0  0  0  0  0  0  0  0  0
   -7.5000   -7.7942    0.0000 C   0  0  0  0  0  0  0  0  0  0  0  0
   -8.9266   -7.3307    0.0000 C   0  0  0  0  0  0  0  0  0  0  0  0
   -8.9266   -5.8307    0.0000 C   0  0  0  0  0  0  0  0  0  0  0  0
   -7.5000   -5.3672    0.0000 C   0  0  0  0  0  0  0  0  0  0  0  0
   -6.0000   -5.1962    0.0000 C   0  0  0  0  0  0  0  0  0  0  0  0
   -6.6183   -6.5807    0.0000 N   0  0  0  0  0  0  0  0  0  0  0  0
   -3.0000   -7.7942    0.0000 N   0  0  0  0  0  0  0  0  0  0  0  0
   -1.5000   -7.7942    0.0000 C   0  0  0  0  0  0  0  0  0  0  0  0
   -0.7500   -9.0933    0.0000 O   0  0  0  0  0  0  0  0  0  0  0  0
   -1.5000  -10.3923    0.0000 C   0  0  0  0  0  0  0  0  0  0  0  0
   -0.7500  -11.6913    0.0000 C   0  0  0  0  0  0  0  0  0  0  0  0
    0.2537  -10.5766    0.0000 C   0  0  0  0  0  0  0  0  0  0  0  0
    1.6240  -11.1867    0.0000 C   0  0  0  0  0  0  0  0  0  0  0  0
    1.4672  -12.6785    0.0000 C   0  0  0  0  0  0  0  0  0  0  0  0
    0.0000  -12.9904    0.0000 N   0  0  0  0  0  0  0  0  0  0  0  0
   -1.0037  -14.1051    0.0000 C   0  0  0  0  0  0  0  0  0  0  0  0
   -2.3740  -13.4950    0.0000 C   0  0  0  0  0  0  0  0  0  0  0  0
   -2.2172  -12.0032    0.0000 C   0  0  0  0  0  0  0  0  0  0  0  0
   -0.7500   -6.4952    0.0000 N   0  0  0  0  0  0  0  0  0  0  0  0
   -1.5000   -5.1962    0.0000 C   0  0  0  0  0  0  0  0  0  0  0  0
   -0.7500   -3.8971    0.0000 C   0  0  0  0  0  0  0  0  0  0  0  0
    0.7500   -3.8971    0.0000 F   0  0  0  0  0  0  0  0  0  0  0  0
   -1.5000    0.0000    0.0000 C   0  0  0  0  0  0  0  0  0  0  0  0
   -3.0000    0.0000    0.0000 C   0  0  0  0  0  0  0  0  0  0  0  0
   -3.7500   -1.2990    0.0000 Cl  0  0  0  0  0  0  0  0  0  0  0  0
   -3.7500    1.2990    0.0000 C   0  0  0  0  0  0  0  0  0  0  0  0
   -5.2500    1.2990    0.0000 F   0  0  0  0  0  0  0  0  0  0  0  0
   -3.0000    2.5981    0.0000 C   0  0  0  0  0  0  0  0  0  0  0  0
   -1.5000    2.5981    0.0000 C   0  0  0  0  0  0  0  0  0  0  0  0
   -0.7500    1.2990    0.0000 C   0  0  0  0  0  0  0  0  0  0  0  0
    0.7500    1.2990    0.0000 C   0  0  0  0  0  0  0  0  0  0  0  0
  1  2  1  0
  2  3  2  0
  3  4  1  0
  4  5  1  0
  5  6  2  0
  6  7  1  0
  7  8  2  0
  8  9  1  0
  9 10  1  0
 10 11  1  0
 11 12  1  0
 12 13  1  0
 13 14  1  0
 14 15  1  0
 15 16  1  0
 15 17  1  0
  9 18  2  0
 18 19  1  0
 19 20  1  0
 20 21  1  0
 21 22  1  0
 22 23  1  0
 23 24  1  0
 24 25  1  0
 25 26  1  0
 26 27  1  0
 27 28  1  0
 28 29  1  0
 19 30  2  0
 30 31  1  0
 31 32  2  0
 32 33  1  0
  4 34  2  0
 34 35  1  0
 35 36  1  0
 35 37  2  0
 37 38  1  0
 37 39  1  0
 39 40  2  0
 40 41  1  0
 41 42  2  0
 42  2  1  0
 32  5  1  0
 41 34  1  0
 31  8  1  0
 16 10  1  0
 26 22  1  0
 17 12  1  0
 29 22  1  0
M  END
>  <molecule_chembl_id>  (385) 
CHEMBL4857719

>  <canonical_smiles>  (385) 
Oc1cc(-c2ncc3c(N4CC5CCC(C4)N5)nc(OCC45CCCN4CCC5)nc3c2F)c2c(Cl)c(F)ccc2c1

>  <pchembl_value_mean>  (385) 
9.3

>  <inchi>  (385) 
InChI=1S/C31H31ClF2N6O2/c32-25-23(33)6-3-17-11-20(41)12-21(24(17)25)27-26(34)28-22(13-35-27)29(39-14-18-4-5-19(15-39)36-18)38-30(37-28)42-16-31-7-1-9-40(31)10-2-8-31/h3,6,11-13,18-19,36,41H,1-2,4-5,7-10,14-16H2

$$$$

     RDKit          2D

 41 48  0  0  0  0  0  0  0  0999 V2000
   -1.5000   -5.1962    0.0000 O   0  0  0  0  0  0  0  0  0  0  0  0
   -0.7500   -3.8971    0.0000 C   0  0  0  0  0  0  0  0  0  0  0  0
    0.7500   -3.8971    0.0000 C   0  0  0  0  0  0  0  0  0  0  0  0
    1.5000   -2.5981    0.0000 C   0  0  0  0  0  0  0  0  0  0  0  0
    3.0000   -2.5981    0.0000 C   0  0  0  0  0  0  0  0  0  0  0  0
    3.7500   -1.2990    0.0000 N   0  0  0  0  0  0  0  0  0  0  0  0
    5.2500   -1.2990    0.0000 C   0  0  0  0  0  0  0  0  0  0  0  0
    6.0000   -2.5981    0.0000 C   0  0  0  0  0  0  0  0  0  0  0  0
    7.5000   -2.5981    0.0000 C   0  0  0  0  0  0  0  0  0  0  0  0
    8.2500   -1.2990    0.0000 N   0  0  0  0  0  0  0  0  0  0  0  0
    9.7500   -1.2990    0.0000 C   0  0  0  0  0  0  0  0  0  0  0  0
   10.5000   -0.0000    0.0000 C   0  0  0  0  0  0  0  0  0  0  0  0
   10.8119    1.4672    0.0000 C   0  0  0  0  0  0  0  0  0  0  0  0
    9.5128    2.2172    0.0000 C   0  0  0  0  0  0  0  0  0  0  0  0
    8.3981    1.2135    0.0000 C   0  0  0  0  0  0  0  0  0  0  0  0
    7.5000    0.0000    0.0000 C   0  0  0  0  0  0  0  0  0  0  0  0
    9.0082   -0.1568    0.0000 N   0  0  0  0  0  0  0  0  0  0  0  0
    8.2500   -3.8971    0.0000 N   0  0  0  0  0  0  0  0  0  0  0  0
    7.5000   -5.1962    0.0000 C   0  0  0  0  0  0  0  0  0  0  0  0
    8.2500   -6.4952    0.0000 O   0  0  0  0  0  0  0  0  0  0  0  0
    7.5000   -7.7942    0.0000 C   0  0  0  0  0  0  0  0  0  0  0  0
    8.2500   -9.0933    0.0000 C   0  0  0  0  0  0  0  0  0  0  0  0
    9.2537   -7.9785    0.0000 C   0  0  0  0  0  0  0  0  0  0  0  0
   10.6240   -8.5887    0.0000 C   0  0  0  0  0  0  0  0  0  0  0  0
   10.4672  -10.0804    0.0000 C   0  0  0  0  0  0  0  0  0  0  0  0
    9.0000  -10.3923    0.0000 N   0  0  0  0  0  0  0  0  0  0  0  0
    7.9963  -11.5070    0.0000 C   0  0  0  0  0  0  0  0  0  0  0  0
    6.6260  -10.8969    0.0000 C   0  0  0  0  0  0  0  0  0  0  0  0
    6.7828   -9.4051    0.0000 C   0  0  0  0  0  0  0  0  0  0  0  0
    6.0000   -5.1962    0.0000 N   0  0  0  0  0  0  0  0  0  0  0  0
    5.2500   -3.8971    0.0000 C   0  0  0  0  0  0  0  0  0  0  0  0
    3.7500   -3.8971    0.0000 C   0  0  0  0  0  0  0  0  0  0  0  0
    3.0000   -5.1962    0.0000 F   0  0  0  0  0  0  0  0  0  0  0  0
    0.7500   -1.2990    0.0000 C   0  0  0  0  0  0  0  0  0  0  0  0
    1.5000    0.0000    0.0000 C   0  0  0  0  0  0  0  0  0  0  0  0
    3.0000    0.0000    0.0000 Cl  0  0  0  0  0  0  0  0  0  0  0  0
    0.7500    1.2990    0.0000 C   0  0  0  0  0  0  0  0  0  0  0  0
   -0.7500    1.2990    0.0000 C   0  0  0  0  0  0  0  0  0  0  0  0
   -1.5000    0.0000    0.0000 C   0  0  0  0  0  0  0  0  0  0  0  0
   -0.7500   -1.2990    0.0000 C   0  0  0  0  0  0  0  0  0  0  0  0
   -1.5000   -2.5981    0.0000 C   0  0  0  0  0  0  0  0  0  0  0  0
  1  2  1  0
  2  3  2  0
  3  4  1  0
  4  5  1  0
  5  6  2  0
  6  7  1  0
  7  8  2  0
  8  9  1  0
  9 10  1  0
 10 11  1  0
 11 12  1  0
 12 13  1  0
 13 14  1  0
 14 15  1  0
 15 16  1  0
 15 17  1  0
  9 18  2  0
 18 19  1  0
 19 20  1  0
 20 21  1  0
 21 22  1  0
 22 23  1  0
 23 24  1  0
 24 25  1  0
 25 26  1  0
 26 27  1  0
 27 28  1  0
 28 29  1  0
 19 30  2  0
 30 31  1  0
 31 32  2  0
 32 33  1  0
  4 34  2  0
 34 35  1  0
 35 36  1  0
 35 37  2  0
 37 38  1  0
 38 39  2  0
 39 40  1  0
 40 41  2  0
 41  2  1  0
 32  5  1  0
 40 34  1  0
 31  8  1  0
 16 10  1  0
 26 22  1  0
 17 12  1  0
 29 22  1  0
M  END
>  <molecule_chembl_id>  (386) 
CHEMBL4859236

>  <canonical_smiles>  (386) 
Oc1cc(-c2ncc3c(N4CC5CCC(C4)N5)nc(OCC45CCCN4CCC5)nc3c2F)c2c(Cl)cccc2c1

>  <pchembl_value_mean>  (386) 
9.4

>  <inchi>  (386) 
InChI=1S/C31H32ClFN6O2/c32-24-5-1-4-18-12-21(40)13-22(25(18)24)27-26(33)28-23(14-34-27)29(38-15-19-6-7-20(16-38)35-19)37-30(36-28)41-17-31-8-2-10-39(31)11-3-9-31/h1,4-5,12-14,19-20,35,40H,2-3,6-11,15-17H2

$$$$

     RDKit          2D

 43 50  0  0  0  0  0  0  0  0999 V2000
    4.5000    0.0000    0.0000 C   0  0  0  0  0  0  0  0  0  0  0  0
    3.0000    0.0000    0.0000 C   0  0  0  0  0  0  0  0  0  0  0  0
    1.5000    0.0000    0.0000 C   0  0  0  0  0  0  0  0  0  0  0  0
    0.7500   -1.2990    0.0000 C   0  0  0  0  0  0  0  0  0  0  0  0
   -0.7500   -1.2990    0.0000 C   0  0  0  0  0  0  0  0  0  0  0  0
   -1.5000    0.0000    0.0000 C   0  0  0  0  0  0  0  0  0  0  0  0
   -0.7500    1.2990    0.0000 C   0  0  0  0  0  0  0  0  0  0  0  0
   -1.5000    2.5981    0.0000 C   0  0  0  0  0  0  0  0  0  0  0  0
   -0.7500    3.8971    0.0000 C   0  0  0  0  0  0  0  0  0  0  0  0
   -1.5000    5.1962    0.0000 O   0  0  0  0  0  0  0  0  0  0  0  0
    0.7500    3.8971    0.0000 C   0  0  0  0  0  0  0  0  0  0  0  0
    1.5000    2.5981    0.0000 C   0  0  0  0  0  0  0  0  0  0  0  0
    3.0000    2.5981    0.0000 C   0  0  0  0  0  0  0  0  0  0  0  0
    3.7500    1.2990    0.0000 N   0  0  0  0  0  0  0  0  0  0  0  0
    5.2500    1.2990    0.0000 C   0  0  0  0  0  0  0  0  0  0  0  0
    6.0000    2.5981    0.0000 C   0  0  0  0  0  0  0  0  0  0  0  0
    7.5000    2.5981    0.0000 C   0  0  0  0  0  0  0  0  0  0  0  0
    8.2500    1.2990    0.0000 N   0  0  0  0  0  0  0  0  0  0  0  0
    9.7500    1.2990    0.0000 C   0  0  0  0  0  0  0  0  0  0  0  0
   10.5000   -0.0000    0.0000 C   0  0  0  0  0  0  0  0  0  0  0  0
   10.8119   -1.4672    0.0000 C   0  0  0  0  0  0  0  0  0  0  0  0
    9.5128   -2.2172    0.0000 C   0  0  0  0  0  0  0  0  0  0  0  0
    8.3981   -1.2135    0.0000 C   0  0  0  0  0  0  0  0  0  0  0  0
    7.5000   -0.0000    0.0000 C   0  0  0  0  0  0  0  0  0  0  0  0
    9.0082    0.1568    0.0000 N   0  0  0  0  0  0  0  0  0  0  0  0
    8.2500    3.8971    0.0000 N   0  0  0  0  0  0  0  0  0  0  0  0
    7.5000    5.1962    0.0000 C   0  0  0  0  0  0  0  0  0  0  0  0
    8.2500    6.4952    0.0000 O   0  0  0  0  0  0  0  0  0  0  0  0
    9.7500    6.4952    0.0000 C   0  0  0  0  0  0  0  0  0  0  0  0
   10.5000    7.7942    0.0000 C   0  0  0  0  0  0  0  0  0  0  0  0
    9.0328    8.1061    0.0000 C   0  0  0  0  0  0  0  0  0  0  0  0
    8.8760    9.5979    0.0000 C   0  0  0  0  0  0  0  0  0  0  0  0
   10.2463   10.2080    0.0000 C   0  0  0  0  0  0  0  0  0  0  0  0
   11.2500    9.0933    0.0000 N   0  0  0  0  0  0  0  0  0  0  0  0
   12.7172    8.7814    0.0000 C   0  0  0  0  0  0  0  0  0  0  0  0
   12.8740    7.2896    0.0000 C   0  0  0  0  0  0  0  0  0  0  0  0
   14.1731    6.5396    0.0000 F   0  0  0  0  0  0  0  0  0  0  0  0
   11.5037    6.6795    0.0000 C   0  0  0  0  0  0  0  0  0  0  0  0
    6.0000    5.1962    0.0000 N   0  0  0  0  0  0  0  0  0  0  0  0
    5.2500    3.8971    0.0000 C   0  0  0  0  0  0  0  0  0  0  0  0
    3.7500    3.8971    0.0000 C   0  0  0  0  0  0  0  0  0  0  0  0
    3.0000    5.1962    0.0000 F   0  0  0  0  0  0  0  0  0  0  0  0
    0.7500    1.2990    0.0000 C   0  0  0  0  0  0  0  0  0  0  0  0
  1  2  3  0
  2  3  1  0
  3  4  2  0
  4  5  1  0
  5  6  2  0
  6  7  1  0
  7  8  2  0
  8  9  1  0
  9 10  1  0
  9 11  2  0
 11 12  1  0
 12 13  1  0
 13 14  2  0
 14 15  1  0
 15 16  2  0
 16 17  1  0
 17 18  1  0
 18 19  1  0
 19 20  1  0
 20 21  1  0
 21 22  1  0
 22 23  1  0
 23 24  1  0
 23 25  1  0
 17 26  2  0
 26 27  1  0
 27 28  1  0
 28 29  1  0
 30 29  1  1
 30 31  1  0
 31 32  1  0
 32 33  1  0
 33 34  1  0
 34 35  1  0
 35 36  1  0
 36 37  1  6
 36 38  1  0
 27 39  2  0
 39 40  1  0
 40 41  2  0
 41 42  1  0
 12 43  2  0
 43  3  1  0
 43  7  1  0
 41 13  1  0
 40 16  1  0
 24 18  1  0
 34 30  1  0
 25 20  1  0
 38 30  1  0
M  END
>  <molecule_chembl_id>  (387) 
CHEMBL4876040

>  <canonical_smiles>  (387) 
C#Cc1cccc2cc(O)cc(-c3ncc4c(N5CC6CCC(C5)N6)nc(OC[C@@]56CCCN5C[C@H](F)C6)nc4c3F)c12

>  <pchembl_value_mean>  (387) 
9.4

>  <inchi>  (387) 
InChI=1S/C33H32F2N6O2/c1-2-19-5-3-6-20-11-24(42)12-25(27(19)20)29-28(35)30-26(14-36-29)31(40-16-22-7-8-23(17-40)37-22)39-32(38-30)43-18-33-9-4-10-41(33)15-21(34)13-33/h1,3,5-6,11-12,14,21-23,37,42H,4,7-10,13,15-18H2/t21-,22?,23?,33+/m1/s1

$$$$

     RDKit          2D

 44 51  0  0  0  0  0  0  0  0999 V2000
    4.5000    0.0000    0.0000 C   0  0  0  0  0  0  0  0  0  0  0  0
    3.0000    0.0000    0.0000 C   0  0  0  0  0  0  0  0  0  0  0  0
    1.5000    0.0000    0.0000 C   0  0  0  0  0  0  0  0  0  0  0  0
    0.7500   -1.2990    0.0000 C   0  0  0  0  0  0  0  0  0  0  0  0
    1.5000   -2.5981    0.0000 F   0  0  0  0  0  0  0  0  0  0  0  0
   -0.7500   -1.2990    0.0000 C   0  0  0  0  0  0  0  0  0  0  0  0
   -1.5000    0.0000    0.0000 C   0  0  0  0  0  0  0  0  0  0  0  0
   -0.7500    1.2990    0.0000 C   0  0  0  0  0  0  0  0  0  0  0  0
   -1.5000    2.5981    0.0000 C   0  0  0  0  0  0  0  0  0  0  0  0
   -0.7500    3.8971    0.0000 C   0  0  0  0  0  0  0  0  0  0  0  0
   -1.5000    5.1962    0.0000 O   0  0  0  0  0  0  0  0  0  0  0  0
    0.7500    3.8971    0.0000 C   0  0  0  0  0  0  0  0  0  0  0  0
    1.5000    2.5981    0.0000 C   0  0  0  0  0  0  0  0  0  0  0  0
    3.0000    2.5981    0.0000 C   0  0  0  0  0  0  0  0  0  0  0  0
    3.7500    1.2990    0.0000 N   0  0  0  0  0  0  0  0  0  0  0  0
    5.2500    1.2990    0.0000 C   0  0  0  0  0  0  0  0  0  0  0  0
    6.0000    2.5981    0.0000 C   0  0  0  0  0  0  0  0  0  0  0  0
    7.5000    2.5981    0.0000 C   0  0  0  0  0  0  0  0  0  0  0  0
    8.2500    1.2990    0.0000 N   0  0  0  0  0  0  0  0  0  0  0  0
    9.7500    1.2990    0.0000 C   0  0  0  0  0  0  0  0  0  0  0  0
   10.5000   -0.0000    0.0000 C   0  0  0  0  0  0  0  0  0  0  0  0
   10.8119   -1.4672    0.0000 C   0  0  0  0  0  0  0  0  0  0  0  0
    9.5128   -2.2172    0.0000 C   0  0  0  0  0  0  0  0  0  0  0  0
    8.3981   -1.2135    0.0000 C   0  0  0  0  0  0  0  0  0  0  0  0
    7.5000   -0.0000    0.0000 C   0  0  0  0  0  0  0  0  0  0  0  0
    9.0082    0.1568    0.0000 N   0  0  0  0  0  0  0  0  0  0  0  0
    8.2500    3.8971    0.0000 N   0  0  0  0  0  0  0  0  0  0  0  0
    7.5000    5.1962    0.0000 C   0  0  0  0  0  0  0  0  0  0  0  0
    8.2500    6.4952    0.0000 O   0  0  0  0  0  0  0  0  0  0  0  0
    9.7500    6.4952    0.0000 C   0  0  0  0  0  0  0  0  0  0  0  0
   10.5000    7.7942    0.0000 C   0  0  0  0  0  0  0  0  0  0  0  0
    9.0328    8.1061    0.0000 C   0  0  0  0  0  0  0  0  0  0  0  0
    8.8760    9.5979    0.0000 C   0  0  0  0  0  0  0  0  0  0  0  0
   10.2463   10.2080    0.0000 C   0  0  0  0  0  0  0  0  0  0  0  0
   11.2500    9.0933    0.0000 N   0  0  0  0  0  0  0  0  0  0  0  0
   12.7172    8.7814    0.0000 C   0  0  0  0  0  0  0  0  0  0  0  0
   12.8740    7.2896    0.0000 C   0  0  0  0  0  0  0  0  0  0  0  0
   14.1731    6.5396    0.0000 F   0  0  0  0  0  0  0  0  0  0  0  0
   11.5037    6.6795    0.0000 C   0  0  0  0  0  0  0  0  0  0  0  0
    6.0000    5.1962    0.0000 N   0  0  0  0  0  0  0  0  0  0  0  0
    5.2500    3.8971    0.0000 C   0  0  0  0  0  0  0  0  0  0  0  0
    3.7500    3.8971    0.0000 C   0  0  0  0  0  0  0  0  0  0  0  0
    3.0000    5.1962    0.0000 F   0  0  0  0  0  0  0  0  0  0  0  0
    0.7500    1.2990    0.0000 C   0  0  0  0  0  0  0  0  0  0  0  0
  1  2  3  0
  2  3  1  0
  3  4  2  0
  4  5  1  0
  4  6  1  0
  6  7  2  0
  7  8  1  0
  8  9  2  0
  9 10  1  0
 10 11  1  0
 10 12  2  0
 12 13  1  0
 13 14  1  0
 14 15  2  0
 15 16  1  0
 16 17  2  0
 17 18  1  0
 18 19  1  0
 19 20  1  0
 20 21  1  0
 21 22  1  0
 22 23  1  0
 23 24  1  0
 24 25  1  0
 24 26  1  0
 18 27  2  0
 27 28  1  0
 28 29  1  0
 29 30  1  0
 31 30  1  1
 31 32  1  0
 32 33  1  0
 33 34  1  0
 34 35  1  0
 35 36  1  0
 36 37  1  0
 37 38  1  6
 37 39  1  0
 28 40  2  0
 40 41  1  0
 41 42  2  0
 42 43  1  0
 13 44  2  0
 44  3  1  0
 44  8  1  0
 42 14  1  0
 41 17  1  0
 25 19  1  0
 35 31  1  0
 26 21  1  0
 39 31  1  0
M  END
>  <molecule_chembl_id>  (388) 
CHEMBL4858364

>  <canonical_smiles>  (388) 
C#Cc1c(F)ccc2cc(O)cc(-c3ncc4c(N5CC6CCC(C5)N6)nc(OC[C@@]56CCCN5C[C@H](F)C6)nc4c3F)c12

>  <pchembl_value_mean>  (388) 
9.4

>  <inchi>  (388) 
InChI=1S/C33H31F3N6O2/c1-2-23-26(35)7-4-18-10-22(43)11-24(27(18)23)29-28(36)30-25(13-37-29)31(41-15-20-5-6-21(16-41)38-20)40-32(39-30)44-17-33-8-3-9-42(33)14-19(34)12-33/h1,4,7,10-11,13,19-21,38,43H,3,5-6,8-9,12,14-17H2/t19-,20?,21?,33+/m1/s1

$$$$

     RDKit          2D

 42 49  0  0  0  0  0  0  0  0999 V2000
   -1.5000   -5.1962    0.0000 O   0  0  0  0  0  0  0  0  0  0  0  0
   -0.7500   -3.8971    0.0000 C   0  0  0  0  0  0  0  0  0  0  0  0
    0.7500   -3.8971    0.0000 C   0  0  0  0  0  0  0  0  0  0  0  0
    1.5000   -2.5981    0.0000 C   0  0  0  0  0  0  0  0  0  0  0  0
    3.0000   -2.5981    0.0000 C   0  0  0  0  0  0  0  0  0  0  0  0
    3.7500   -1.2990    0.0000 N   0  0  0  0  0  0  0  0  0  0  0  0
    5.2500   -1.2990    0.0000 C   0  0  0  0  0  0  0  0  0  0  0  0
    6.0000   -2.5981    0.0000 C   0  0  0  0  0  0  0  0  0  0  0  0
    7.5000   -2.5981    0.0000 C   0  0  0  0  0  0  0  0  0  0  0  0
    8.2500   -1.2990    0.0000 N   0  0  0  0  0  0  0  0  0  0  0  0
    9.7500   -1.2990    0.0000 C   0  0  0  0  0  0  0  0  0  0  0  0
   10.5000   -0.0000    0.0000 C   0  0  0  0  0  0  0  0  0  0  0  0
   10.8119    1.4672    0.0000 C   0  0  0  0  0  0  0  0  0  0  0  0
    9.5128    2.2172    0.0000 C   0  0  0  0  0  0  0  0  0  0  0  0
    8.3981    1.2135    0.0000 C   0  0  0  0  0  0  0  0  0  0  0  0
    7.5000    0.0000    0.0000 C   0  0  0  0  0  0  0  0  0  0  0  0
    9.0082   -0.1568    0.0000 N   0  0  0  0  0  0  0  0  0  0  0  0
    8.2500   -3.8971    0.0000 N   0  0  0  0  0  0  0  0  0  0  0  0
    7.5000   -5.1962    0.0000 C   0  0  0  0  0  0  0  0  0  0  0  0
    8.2500   -6.4952    0.0000 O   0  0  0  0  0  0  0  0  0  0  0  0
    7.5000   -7.7942    0.0000 C   0  0  0  0  0  0  0  0  0  0  0  0
    8.2500   -9.0933    0.0000 C   0  0  0  0  0  0  0  0  0  0  0  0
    9.2537   -7.9785    0.0000 C   0  0  0  0  0  0  0  0  0  0  0  0
   10.6240   -8.5887    0.0000 C   0  0  0  0  0  0  0  0  0  0  0  0
   10.4672  -10.0804    0.0000 C   0  0  0  0  0  0  0  0  0  0  0  0
    9.0000  -10.3923    0.0000 N   0  0  0  0  0  0  0  0  0  0  0  0
    7.9963  -11.5070    0.0000 C   0  0  0  0  0  0  0  0  0  0  0  0
    6.6260  -10.8969    0.0000 C   0  0  0  0  0  0  0  0  0  0  0  0
    5.3269  -11.6469    0.0000 F   0  0  0  0  0  0  0  0  0  0  0  0
    6.7828   -9.4051    0.0000 C   0  0  0  0  0  0  0  0  0  0  0  0
    6.0000   -5.1962    0.0000 N   0  0  0  0  0  0  0  0  0  0  0  0
    5.2500   -3.8971    0.0000 C   0  0  0  0  0  0  0  0  0  0  0  0
    3.7500   -3.8971    0.0000 C   0  0  0  0  0  0  0  0  0  0  0  0
    3.0000   -5.1962    0.0000 F   0  0  0  0  0  0  0  0  0  0  0  0
    0.7500   -1.2990    0.0000 C   0  0  0  0  0  0  0  0  0  0  0  0
    1.5000    0.0000    0.0000 C   0  0  0  0  0  0  0  0  0  0  0  0
    3.0000    0.0000    0.0000 Cl  0  0  0  0  0  0  0  0  0  0  0  0
    0.7500    1.2990    0.0000 C   0  0  0  0  0  0  0  0  0  0  0  0
   -0.7500    1.2990    0.0000 C   0  0  0  0  0  0  0  0  0  0  0  0
   -1.5000    0.0000    0.0000 C   0  0  0  0  0  0  0  0  0  0  0  0
   -0.7500   -1.2990    0.0000 C   0  0  0  0  0  0  0  0  0  0  0  0
   -1.5000   -2.5981    0.0000 C   0  0  0  0  0  0  0  0  0  0  0  0
  1  2  1  0
  2  3  2  0
  3  4  1  0
  4  5  1  0
  5  6  2  0
  6  7  1  0
  7  8  2  0
  8  9  1  0
  9 10  1  0
 10 11  1  0
 11 12  1  0
 12 13  1  0
 13 14  1  0
 14 15  1  0
 15 16  1  0
 15 17  1  0
  9 18  2  0
 18 19  1  0
 19 20  1  0
 20 21  1  0
 22 21  1  1
 22 23  1  0
 23 24  1  0
 24 25  1  0
 25 26  1  0
 26 27  1  0
 27 28  1  0
 28 29  1  6
 28 30  1  0
 19 31  2  0
 31 32  1  0
 32 33  2  0
 33 34  1  0
  4 35  2  0
 35 36  1  0
 36 37  1  0
 36 38  2  0
 38 39  1  0
 39 40  2  0
 40 41  1  0
 41 42  2  0
 42  2  1  0
 33  5  1  0
 41 35  1  0
 32  8  1  0
 16 10  1  0
 26 22  1  0
 17 12  1  0
 30 22  1  0
M  END
>  <molecule_chembl_id>  (389) 
CHEMBL4857438

>  <canonical_smiles>  (389) 
Oc1cc(-c2ncc3c(N4CC5CCC(C4)N5)nc(OC[C@@]45CCCN4C[C@H](F)C5)nc3c2F)c2c(Cl)cccc2c1

>  <pchembl_value_mean>  (389) 
9.7

>  <inchi>  (389) 
InChI=1S/C31H31ClF2N6O2/c32-24-4-1-3-17-9-21(41)10-22(25(17)24)27-26(34)28-23(12-35-27)29(39-14-19-5-6-20(15-39)36-19)38-30(37-28)42-16-31-7-2-8-40(31)13-18(33)11-31/h1,3-4,9-10,12,18-20,36,41H,2,5-8,11,13-16H2/t18-,19?,20?,31+/m1/s1

$$$$

     RDKit          2D

 42 49  0  0  0  0  0  0  0  0999 V2000
   -1.5000   -5.1962    0.0000 O   0  0  0  0  0  0  0  0  0  0  0  0
   -0.7500   -3.8971    0.0000 C   0  0  0  0  0  0  0  0  0  0  0  0
    0.7500   -3.8971    0.0000 C   0  0  0  0  0  0  0  0  0  0  0  0
    1.5000   -2.5981    0.0000 C   0  0  0  0  0  0  0  0  0  0  0  0
    3.0000   -2.5981    0.0000 C   0  0  0  0  0  0  0  0  0  0  0  0
    3.7500   -1.2990    0.0000 N   0  0  0  0  0  0  0  0  0  0  0  0
    5.2500   -1.2990    0.0000 C   0  0  0  0  0  0  0  0  0  0  0  0
    6.0000   -2.5981    0.0000 C   0  0  0  0  0  0  0  0  0  0  0  0
    7.5000   -2.5981    0.0000 C   0  0  0  0  0  0  0  0  0  0  0  0
    8.2500   -1.2990    0.0000 N   0  0  0  0  0  0  0  0  0  0  0  0
    9.7500   -1.2990    0.0000 C   0  0  0  0  0  0  0  0  0  0  0  0
   10.5000   -0.0000    0.0000 C   0  0  0  0  0  0  0  0  0  0  0  0
   10.8119    1.4672    0.0000 C   0  0  0  0  0  0  0  0  0  0  0  0
    9.5128    2.2172    0.0000 C   0  0  0  0  0  0  0  0  0  0  0  0
    8.3981    1.2135    0.0000 C   0  0  0  0  0  0  0  0  0  0  0  0
    7.5000    0.0000    0.0000 C   0  0  0  0  0  0  0  0  0  0  0  0
    9.0082   -0.1568    0.0000 N   0  0  0  0  0  0  0  0  0  0  0  0
    8.2500   -3.8971    0.0000 N   0  0  0  0  0  0  0  0  0  0  0  0
    7.5000   -5.1962    0.0000 C   0  0  0  0  0  0  0  0  0  0  0  0
    8.2500   -6.4952    0.0000 O   0  0  0  0  0  0  0  0  0  0  0  0
    7.5000   -7.7942    0.0000 C   0  0  0  0  0  0  0  0  0  0  0  0
    8.2500   -9.0933    0.0000 C   0  0  0  0  0  0  0  0  0  0  0  0
    9.2537   -7.9785    0.0000 C   0  0  0  0  0  0  0  0  0  0  0  0
   10.6240   -8.5887    0.0000 C   0  0  0  0  0  0  0  0  0  0  0  0
   10.4672  -10.0804    0.0000 C   0  0  0  0  0  0  0  0  0  0  0  0
    9.0000  -10.3923    0.0000 N   0  0  0  0  0  0  0  0  0  0  0  0
    7.9963  -11.5070    0.0000 C   0  0  0  0  0  0  0  0  0  0  0  0
    8.3082  -12.9742    0.0000 C   0  0  0  0  0  0  0  0  0  0  0  0
    7.1935  -13.9779    0.0000 F   0  0  0  0  0  0  0  0  0  0  0  0
    6.6260  -10.8969    0.0000 C   0  0  0  0  0  0  0  0  0  0  0  0
    6.7828   -9.4051    0.0000 C   0  0  0  0  0  0  0  0  0  0  0  0
    6.0000   -5.1962    0.0000 N   0  0  0  0  0  0  0  0  0  0  0  0
    5.2500   -3.8971    0.0000 C   0  0  0  0  0  0  0  0  0  0  0  0
    3.7500   -3.8971    0.0000 C   0  0  0  0  0  0  0  0  0  0  0  0
    3.0000   -5.1962    0.0000 F   0  0  0  0  0  0  0  0  0  0  0  0
    0.7500   -1.2990    0.0000 C   0  0  0  0  0  0  0  0  0  0  0  0
    1.5000    0.0000    0.0000 C   0  0  0  0  0  0  0  0  0  0  0  0
    0.7500    1.2990    0.0000 C   0  0  0  0  0  0  0  0  0  0  0  0
   -0.7500    1.2990    0.0000 C   0  0  0  0  0  0  0  0  0  0  0  0
   -1.5000    0.0000    0.0000 C   0  0  0  0  0  0  0  0  0  0  0  0
   -0.7500   -1.2990    0.0000 C   0  0  0  0  0  0  0  0  0  0  0  0
   -1.5000   -2.5981    0.0000 C   0  0  0  0  0  0  0  0  0  0  0  0
  1  2  1  0
  2  3  2  0
  3  4  1  0
  4  5  1  0
  5  6  2  0
  6  7  1  0
  7  8  2  0
  8  9  1  0
  9 10  1  0
 10 11  1  0
 11 12  1  0
 12 13  1  0
 13 14  1  0
 14 15  1  0
 15 16  1  0
 15 17  1  0
  9 18  2  0
 18 19  1  0
 19 20  1  0
 20 21  1  0
 21 22  1  0
 22 23  1  0
 23 24  1  0
 24 25  1  0
 25 26  1  0
 26 27  1  0
 27 28  1  0
 28 29  1  0
 27 30  1  0
 30 31  1  0
 19 32  2  0
 32 33  1  0
 33 34  2  0
 34 35  1  0
  4 36  2  0
 36 37  1  0
 37 38  2  0
 38 39  1  0
 39 40  2  0
 40 41  1  0
 41 42  2  0
 42  2  1  0
 34  5  1  0
 41 36  1  0
 33  8  1  0
 16 10  1  0
 26 22  1  0
 17 12  1  0
 31 22  1  0
M  END
>  <molecule_chembl_id>  (390) 
CHEMBL4855757

>  <canonical_smiles>  (390) 
Oc1cc(-c2ncc3c(N4CC5CCC(C4)N5)nc(OCC45CCCN4C(CF)CC5)nc3c2F)c2ccccc2c1

>  <pchembl_value_mean>  (390) 
10.0

>  <inchi>  (390) 
InChI=1S/C32H34F2N6O2/c33-14-22-8-10-32(9-3-11-40(22)32)18-42-31-37-29-26(30(38-31)39-16-20-6-7-21(17-39)36-20)15-35-28(27(29)34)25-13-23(41)12-19-4-1-2-5-24(19)25/h1-2,4-5,12-13,15,20-22,36,41H,3,6-11,14,16-18H2

$$$$
